
OS:Version,
  {2de34195-cfe9-4246-8332-5bab90f0bc13}, !- Handle
  2.0.4;                                  !- Version Identifier

OS:Site,
  {0b8ad205-8d79-49a0-83ad-2a0b3b8fbcce}, !- Handle
  TAIPEI,                                 !- Name
  25.07,                                  !- Latitude {deg}
  121.55,                                 !- Longitude {deg}
  8,                                      !- Time Zone {hr}
  6,                                      !- Elevation {m}
  ;                                       !- Terrain

OS:SimulationControl,
  {7b5af329-9e50-43ed-bcfd-6f84ad7f2c32}, !- Handle
  Yes,                                    !- Do Zone Sizing Calculation
  Yes,                                    !- Do System Sizing Calculation
  No,                                     !- Do Plant Sizing Calculation
  Yes,                                    !- Run Simulation for Sizing Periods
  Yes,                                    !- Run Simulation for Weather File Run Periods
  ,                                       !- Loads Convergence Tolerance Value
  ,                                       !- Temperature Convergence Tolerance Value {deltaC}
  ;                                       !- Solar Distribution

OS:Surface,
  {892a32b5-fb35-418e-9365-8772c7645b26}, !- Handle
  Surface 80,                             !- Name
  Wall,                                   !- Surface Type
  {349c549a-d20f-407b-bf8d-5ddc2cfb052d}, !- Construction Name
  {041db38f-191c-42cd-9678-34cbf5e95e99}, !- Space Name
  Surface,                                !- Outside Boundary Condition
  {18b62203-7810-48e0-8589-e133e573ccf6}, !- Outside Boundary Condition Object
  NoSun,                                  !- Sun Exposure
  NoWind,                                 !- Wind Exposure
  ,                                       !- View Factor to Ground
  ,                                       !- Number of Vertices
  0, 0, 2.35,                             !- X,Y,Z Vertex 1 {m}
  0, 0, 0,                                !- X,Y,Z Vertex 2 {m}
  -3.5, 0, 0,                             !- X,Y,Z Vertex 3 {m}
  -3.5, 0, 2.35;                          !- X,Y,Z Vertex 4 {m}

OS:Construction,
  {349c549a-d20f-407b-bf8d-5ddc2cfb052d}, !- Handle
  Interior Wall,                          !- Name
  {5b087583-49ee-4f5f-bcac-f7fb1ba2a36d}, !- Surface Rendering Name
  {ab84fb65-681a-43a4-98ad-6b6936872f1c}, !- Layer 1
  {9ec15cd1-c605-452b-8eeb-f2ed6c3b434d}, !- Layer 2
  {ab84fb65-681a-43a4-98ad-6b6936872f1c}; !- Layer 3

OS:Material,
  {ab84fb65-681a-43a4-98ad-6b6936872f1c}, !- Handle
  G01a 19mm gypsum board,                 !- Name
  MediumSmooth,                           !- Roughness
  0.019,                                  !- Thickness {m}
  0.16,                                   !- Conductivity {W/m-K}
  800,                                    !- Density {kg/m3}
  1090,                                   !- Specific Heat {J/kg-K}
  0.9,                                    !- Thermal Absorptance
  0.4,                                    !- Solar Absorptance
  0.4;                                    !- Visible Absorptance

OS:Material:AirGap,
  {9ec15cd1-c605-452b-8eeb-f2ed6c3b434d}, !- Handle
  F04 Wall air space resistance,          !- Name
  0.15;                                   !- Thermal Resistance {m2-K/W}

OS:ThermalZone,
  {7369ca3f-54f7-4360-93c6-b81161ddb4e7}, !- Handle
  Thermal Zone 11 Thermal Zone Thermal Zone, !- Name
  ,                                       !- Multiplier
  ,                                       !- Ceiling Height {m}
  ,                                       !- Volume {m3}
  ,                                       !- Floor Area {m2}
  ,                                       !- Zone Inside Convection Algorithm
  ,                                       !- Zone Outside Convection Algorithm
  ,                                       !- Zone Conditioning Equipment List Name
  {31e5fafd-0874-44f8-a988-023cab4bb7d8}, !- Zone Air Inlet Port List
  {0f6476b6-4490-41e9-a71e-a79d1ff27f9f}, !- Zone Air Exhaust Port List
  {2f5cca93-b04c-4962-9b27-ba0427543402}, !- Zone Air Node Name
  ,                                       !- Zone Return Air Node Name
  ,                                       !- Primary Daylighting Control Name
  ,                                       !- Fraction of Zone Controlled by Primary Daylighting Control
  ,                                       !- Secondary Daylighting Control Name
  ,                                       !- Fraction of Zone Controlled by Secondary Daylighting Control
  ,                                       !- Illuminance Map Name
  {b2ba74d7-f9e6-4728-bf56-79a3a876df6e}, !- Group Rendering Name
  ,                                       !- Thermostat Name
  No;                                     !- Use Ideal Air Loads

OS:Node,
  {99984d44-5dda-4069-951e-e168f686e9c2}, !- Handle
  {87b74dea-f0c4-409e-a7f2-f862e33d7e3b}, !- Name
  {2f5cca93-b04c-4962-9b27-ba0427543402}, !- Inlet Port
  ;                                       !- Outlet Port

OS:Connection,
  {2f5cca93-b04c-4962-9b27-ba0427543402}, !- Handle
  {d723b3a6-af85-41d9-9eaf-076c79cae627}, !- Name
  {7369ca3f-54f7-4360-93c6-b81161ddb4e7}, !- Source Object
  11,                                     !- Outlet Port
  {99984d44-5dda-4069-951e-e168f686e9c2}, !- Target Object
  2;                                      !- Inlet Port

OS:PortList,
  {31e5fafd-0874-44f8-a988-023cab4bb7d8}, !- Handle
  {379485d1-c64a-4568-9351-8764c1e5a08d}, !- Name
  {7369ca3f-54f7-4360-93c6-b81161ddb4e7}; !- HVAC Component

OS:PortList,
  {0f6476b6-4490-41e9-a71e-a79d1ff27f9f}, !- Handle
  {d03e7515-2397-4898-985c-ef0c2af1c3d6}, !- Name
  {7369ca3f-54f7-4360-93c6-b81161ddb4e7}; !- HVAC Component

OS:Sizing:Zone,
  {a5457c16-3403-4da0-8f7f-d5edab243b52}, !- Handle
  {7369ca3f-54f7-4360-93c6-b81161ddb4e7}, !- Zone or ZoneList Name
  SupplyAirTemperature,                   !- Zone Cooling Design Supply Air Temperature Input Method
  14,                                     !- Zone Cooling Design Supply Air Temperature {C}
  11.11,                                  !- Zone Cooling Design Supply Air Temperature Difference {deltaC}
  SupplyAirTemperature,                   !- Zone Heating Design Supply Air Temperature Input Method
  40,                                     !- Zone Heating Design Supply Air Temperature {C}
  11.11,                                  !- Zone Heating Design Supply Air Temperature Difference {deltaC}
  0.0085,                                 !- Zone Cooling Design Supply Air Humidity Ratio {kg-H2O/kg-air}
  0.008,                                  !- Zone Heating Design Supply Air Humidity Ratio {kg-H2O/kg-air}
  ,                                       !- Zone Heating Sizing Factor
  ,                                       !- Zone Cooling Sizing Factor
  DesignDay,                              !- Cooling Design Air Flow Method
  ,                                       !- Cooling Design Air Flow Rate {m3/s}
  ,                                       !- Cooling Minimum Air Flow per Zone Floor Area {m3/s-m2}
  ,                                       !- Cooling Minimum Air Flow {m3/s}
  ,                                       !- Cooling Minimum Air Flow Fraction
  DesignDay,                              !- Heating Design Air Flow Method
  ,                                       !- Heating Design Air Flow Rate {m3/s}
  ,                                       !- Heating Maximum Air Flow per Zone Floor Area {m3/s-m2}
  ,                                       !- Heating Maximum Air Flow {m3/s}
  ,                                       !- Heating Maximum Air Flow Fraction
  ,                                       !- Design Zone Air Distribution Effectiveness in Cooling Mode
  ,                                       !- Design Zone Air Distribution Effectiveness in Heating Mode
  No,                                     !- Account for Dedicated Outdoor Air System
  NeutralSupplyAir,                       !- Dedicated Outdoor Air System Control Strategy
  autosize,                               !- Dedicated Outdoor Air Low Setpoint Temperature for Design {C}
  autosize;                               !- Dedicated Outdoor Air High Setpoint Temperature for Design {C}

OS:ZoneHVAC:EquipmentList,
  {8055ffb6-438a-4514-ad83-3d94c11b4539}, !- Handle
  {08961395-433a-44ef-a307-57db998969ac}, !- Name
  {7369ca3f-54f7-4360-93c6-b81161ddb4e7}; !- Thermal Zone

OS:Space,
  {041db38f-191c-42cd-9678-34cbf5e95e99}, !- Handle
  Thermal Zone 11 Thermal Zone,           !- Name
  ,                                       !- Space Type Name
  ,                                       !- Default Construction Set Name
  ,                                       !- Default Schedule Set Name
  -0,                                     !- Direction of Relative North {deg}
  10.5,                                   !- X Origin {m}
  0,                                      !- Y Origin {m}
  0,                                      !- Z Origin {m}
  ,                                       !- Building Story Name
  {7369ca3f-54f7-4360-93c6-b81161ddb4e7}, !- Thermal Zone Name
  ,                                       !- Part of Total Floor Area
  ,                                       !- Design Specification Outdoor Air Object Name
  ;                                       !- Building Unit Name

OS:Schedule:Day,
  {98b19dfc-105c-4f9f-b657-6f7b2f0383a1}, !- Handle
  Small Office Bldg Occ Rule 2 Day Schedule, !- Name
  {aee4e6d7-bb6d-4fbf-bbd8-4026dae60248}, !- Schedule Type Limits Name
  ,                                       !- Interpolate to Timestep
  6,                                      !- Hour 1
  0,                                      !- Minute 1
  0,                                      !- Value Until Time 1
  8,                                      !- Hour 2
  0,                                      !- Minute 2
  0.1,                                    !- Value Until Time 2
  12,                                     !- Hour 3
  0,                                      !- Minute 3
  0.3,                                    !- Value Until Time 3
  17,                                     !- Hour 4
  0,                                      !- Minute 4
  0.1,                                    !- Value Until Time 4
  24,                                     !- Hour 5
  0,                                      !- Minute 5
  0;                                      !- Value Until Time 5

OS:ScheduleTypeLimits,
  {aee4e6d7-bb6d-4fbf-bbd8-4026dae60248}, !- Handle
  Fractional,                             !- Name
  0,                                      !- Lower Limit Value
  1,                                      !- Upper Limit Value
  Continuous;                             !- Numeric Type

OS:Surface,
  {a05a14a2-8d94-43cc-ab6a-560cf7c04618}, !- Handle
  Surface 59,                             !- Name
  Wall,                                   !- Surface Type
  {349c549a-d20f-407b-bf8d-5ddc2cfb052d}, !- Construction Name
  {041db38f-191c-42cd-9678-34cbf5e95e99}, !- Space Name
  Outdoors,                               !- Outside Boundary Condition
  ,                                       !- Outside Boundary Condition Object
  SunExposed,                             !- Sun Exposure
  WindExposed,                            !- Wind Exposure
  ,                                       !- View Factor to Ground
  ,                                       !- Number of Vertices
  0, -1.58001051937467, 2.35,             !- X,Y,Z Vertex 1 {m}
  0, -1.58001051937467, 0,                !- X,Y,Z Vertex 2 {m}
  0, 0, 0,                                !- X,Y,Z Vertex 3 {m}
  0, 0, 2.35;                             !- X,Y,Z Vertex 4 {m}

OS:Schedule:Day,
  {cd3e7523-2bdc-4d2b-9c62-d298ca156b57}, !- Handle
  Medium Office Bldg Equip Rule 1 Day Schedule, !- Name
  {3b8f4faa-0a63-4357-958c-832be6122738}, !- Schedule Type Limits Name
  ,                                       !- Interpolate to Timestep
  24,                                     !- Hour 1
  0,                                      !- Minute 1
  0.3;                                    !- Value Until Time 1

OS:ScheduleTypeLimits,
  {3b8f4faa-0a63-4357-958c-832be6122738}, !- Handle
  Fraction,                               !- Name
  0,                                      !- Lower Limit Value
  1,                                      !- Upper Limit Value
  CONTINUOUS;                             !- Numeric Type

OS:Schedule:Year,
  {95715800-6937-479d-8e38-5a544d805678}, !- Handle
  Small Office ClgSetp,                   !- Name
  {7a25bc9c-6cdf-4943-a76a-503b6589e140}, !- Schedule Type Limits Name
  12,                                     !- Month 1
  31,                                     !- Day 1
  {0ba8d4fc-292b-4709-99e0-5ca7435d00a6}; !- Week Schedule Until Date 1

OS:ScheduleTypeLimits,
  {7a25bc9c-6cdf-4943-a76a-503b6589e140}, !- Handle
  Temperature 4,                          !- Name
  ,                                       !- Lower Limit Value
  ,                                       !- Upper Limit Value
  Continuous,                             !- Numeric Type
  temperature;                            !- Unit Type

OS:Schedule:Week,
  {0ba8d4fc-292b-4709-99e0-5ca7435d00a6}, !- Handle
  Schedule:Week:Daily {5759b51f-11ad-48f3-8c8f-98d21dde5c9f}, !- Name
  ,                                       !- Schedule Rendering Name
  {83c4508d-a585-4cec-a543-89a1c22b3d56}, !- Sunday Schedule:Day Name
  {79227b1d-3de2-440f-8e79-982d94b35a00}, !- Monday Schedule:Day Name
  {79227b1d-3de2-440f-8e79-982d94b35a00}, !- Tuesday Schedule:Day Name
  {79227b1d-3de2-440f-8e79-982d94b35a00}, !- Wednesday Schedule:Day Name
  {79227b1d-3de2-440f-8e79-982d94b35a00}, !- Thursday Schedule:Day Name
  {79227b1d-3de2-440f-8e79-982d94b35a00}, !- Friday Schedule:Day Name
  {3937837e-50ea-410a-a926-b1c8039fbea3}, !- Saturday Schedule:Day Name
  {79227b1d-3de2-440f-8e79-982d94b35a00}, !- Holiday Schedule:Day Name
  {4854462b-1498-4168-b363-a4413a3bcf7a}, !- SummerDesignDay Schedule:Day Name
  {00a955e1-5d5b-4104-80fb-bb560e5bfaf2}, !- WinterDesignDay Schedule:Day Name
  {79227b1d-3de2-440f-8e79-982d94b35a00}, !- CustomDay1 Schedule:Day Name
  {79227b1d-3de2-440f-8e79-982d94b35a00}; !- CustomDay2 Schedule:Day Name

OS:Schedule:Day,
  {83c4508d-a585-4cec-a543-89a1c22b3d56}, !- Handle
  Small Office ClgSetp Rule 1 Day Schedule, !- Name
  {7a25bc9c-6cdf-4943-a76a-503b6589e140}, !- Schedule Type Limits Name
  ,                                       !- Interpolate to Timestep
  24,                                     !- Hour 1
  0,                                      !- Minute 1
  26.7;                                   !- Value Until Time 1

OS:Schedule:Day,
  {79227b1d-3de2-440f-8e79-982d94b35a00}, !- Handle
  Small Office ClgSetp Default Schedule,  !- Name
  {7a25bc9c-6cdf-4943-a76a-503b6589e140}, !- Schedule Type Limits Name
  ,                                       !- Interpolate to Timestep
  6,                                      !- Hour 1
  0,                                      !- Minute 1
  26.7,                                   !- Value Until Time 1
  22,                                     !- Hour 2
  0,                                      !- Minute 2
  24,                                     !- Value Until Time 2
  24,                                     !- Hour 3
  0,                                      !- Minute 3
  26.7;                                   !- Value Until Time 3

OS:Schedule:Day,
  {3937837e-50ea-410a-a926-b1c8039fbea3}, !- Handle
  Small Office ClgSetp Rule 2 Day Schedule, !- Name
  {7a25bc9c-6cdf-4943-a76a-503b6589e140}, !- Schedule Type Limits Name
  ,                                       !- Interpolate to Timestep
  6,                                      !- Hour 1
  0,                                      !- Minute 1
  26.7,                                   !- Value Until Time 1
  18,                                     !- Hour 2
  0,                                      !- Minute 2
  24,                                     !- Value Until Time 2
  24,                                     !- Hour 3
  0,                                      !- Minute 3
  26.7;                                   !- Value Until Time 3

OS:Schedule:Day,
  {4854462b-1498-4168-b363-a4413a3bcf7a}, !- Handle
  Small Office ClgSetp Summer Design Day, !- Name
  {7a25bc9c-6cdf-4943-a76a-503b6589e140}, !- Schedule Type Limits Name
  ,                                       !- Interpolate to Timestep
  6,                                      !- Hour 1
  0,                                      !- Minute 1
  26.7,                                   !- Value Until Time 1
  22,                                     !- Hour 2
  0,                                      !- Minute 2
  24,                                     !- Value Until Time 2
  24,                                     !- Hour 3
  0,                                      !- Minute 3
  26.7;                                   !- Value Until Time 3

OS:Schedule:Day,
  {00a955e1-5d5b-4104-80fb-bb560e5bfaf2}, !- Handle
  Small Office ClgSetp Winter Design Day, !- Name
  {7a25bc9c-6cdf-4943-a76a-503b6589e140}, !- Schedule Type Limits Name
  ,                                       !- Interpolate to Timestep
  24,                                     !- Hour 1
  0,                                      !- Minute 1
  26.7;                                   !- Value Until Time 1

OS:YearDescription,
  {acad3350-4537-4d78-b483-47008fe51129}; !- Handle

OS:Schedule:Week,
  {d81f69d2-2fd7-42d2-aa52-61284e18382f}, !- Handle
  Schedule:Week:Daily {82274886-60ce-45cb-a47b-33570ed02a3e}, !- Name
  ,                                       !- Schedule Rendering Name
  {336ce855-ea08-47d1-aa44-f3146c496e46}, !- Sunday Schedule:Day Name
  {e42ea88c-8175-4dd2-9f1a-304b116e0f3b}, !- Monday Schedule:Day Name
  {e42ea88c-8175-4dd2-9f1a-304b116e0f3b}, !- Tuesday Schedule:Day Name
  {e42ea88c-8175-4dd2-9f1a-304b116e0f3b}, !- Wednesday Schedule:Day Name
  {e42ea88c-8175-4dd2-9f1a-304b116e0f3b}, !- Thursday Schedule:Day Name
  {e42ea88c-8175-4dd2-9f1a-304b116e0f3b}, !- Friday Schedule:Day Name
  {48482dfe-0d8b-4dba-9ff9-525bae98d0bb}, !- Saturday Schedule:Day Name
  {e42ea88c-8175-4dd2-9f1a-304b116e0f3b}, !- Holiday Schedule:Day Name
  {d0a7ce9f-ca57-4948-a6c1-064154f88f82}, !- SummerDesignDay Schedule:Day Name
  {02c17f74-ab20-4269-ae9b-0f0854512767}, !- WinterDesignDay Schedule:Day Name
  {e42ea88c-8175-4dd2-9f1a-304b116e0f3b}, !- CustomDay1 Schedule:Day Name
  {e42ea88c-8175-4dd2-9f1a-304b116e0f3b}; !- CustomDay2 Schedule:Day Name

OS:Schedule:Day,
  {336ce855-ea08-47d1-aa44-f3146c496e46}, !- Handle
  Small Office Infil Quarter On Rule 1 Day Schedule, !- Name
  {aee4e6d7-bb6d-4fbf-bbd8-4026dae60248}, !- Schedule Type Limits Name
  ,                                       !- Interpolate to Timestep
  24,                                     !- Hour 1
  0,                                      !- Minute 1
  1;                                      !- Value Until Time 1

OS:Schedule:Day,
  {e42ea88c-8175-4dd2-9f1a-304b116e0f3b}, !- Handle
  Small Office Infil Quarter On Default Schedule, !- Name
  {aee4e6d7-bb6d-4fbf-bbd8-4026dae60248}, !- Schedule Type Limits Name
  ,                                       !- Interpolate to Timestep
  6,                                      !- Hour 1
  0,                                      !- Minute 1
  1,                                      !- Value Until Time 1
  22,                                     !- Hour 2
  0,                                      !- Minute 2
  0.25,                                   !- Value Until Time 2
  24,                                     !- Hour 3
  0,                                      !- Minute 3
  1;                                      !- Value Until Time 3

OS:Schedule:Day,
  {48482dfe-0d8b-4dba-9ff9-525bae98d0bb}, !- Handle
  Small Office Infil Quarter On Rule 2 Day Schedule, !- Name
  {aee4e6d7-bb6d-4fbf-bbd8-4026dae60248}, !- Schedule Type Limits Name
  ,                                       !- Interpolate to Timestep
  6,                                      !- Hour 1
  0,                                      !- Minute 1
  1,                                      !- Value Until Time 1
  18,                                     !- Hour 2
  0,                                      !- Minute 2
  0.25,                                   !- Value Until Time 2
  24,                                     !- Hour 3
  0,                                      !- Minute 3
  1;                                      !- Value Until Time 3

OS:Schedule:Day,
  {d0a7ce9f-ca57-4948-a6c1-064154f88f82}, !- Handle
  Small Office Infil Quarter On Summer Design Day, !- Name
  {aee4e6d7-bb6d-4fbf-bbd8-4026dae60248}, !- Schedule Type Limits Name
  ,                                       !- Interpolate to Timestep
  6,                                      !- Hour 1
  0,                                      !- Minute 1
  1,                                      !- Value Until Time 1
  22,                                     !- Hour 2
  0,                                      !- Minute 2
  0.25,                                   !- Value Until Time 2
  24,                                     !- Hour 3
  0,                                      !- Minute 3
  1;                                      !- Value Until Time 3

OS:Schedule:Day,
  {02c17f74-ab20-4269-ae9b-0f0854512767}, !- Handle
  Small Office Infil Quarter On Winter Design Day, !- Name
  {aee4e6d7-bb6d-4fbf-bbd8-4026dae60248}, !- Schedule Type Limits Name
  ,                                       !- Interpolate to Timestep
  6,                                      !- Hour 1
  0,                                      !- Minute 1
  1,                                      !- Value Until Time 1
  18,                                     !- Hour 2
  0,                                      !- Minute 2
  0.25,                                   !- Value Until Time 2
  24,                                     !- Hour 3
  0,                                      !- Minute 3
  1;                                      !- Value Until Time 3

OS:Schedule:Year,
  {92a1522e-401d-4ee1-b95e-55e5e5adb05c}, !- Handle
  Office Activity,                        !- Name
  {edcdbd66-85e3-4f70-94e9-9cdc3dcbf83f}, !- Schedule Type Limits Name
  12,                                     !- Month 1
  31,                                     !- Day 1
  {cb018768-0028-46e2-8f29-894d6d0bc202}; !- Week Schedule Until Date 1

OS:ScheduleTypeLimits,
  {edcdbd66-85e3-4f70-94e9-9cdc3dcbf83f}, !- Handle
  ActivityLevel,                          !- Name
  0,                                      !- Lower Limit Value
  ,                                       !- Upper Limit Value
  Continuous,                             !- Numeric Type
  activitylevel;                          !- Unit Type

OS:Schedule:Week,
  {cb018768-0028-46e2-8f29-894d6d0bc202}, !- Handle
  Schedule:Week:Daily {6f85ba55-bdb4-4f93-84a2-e16021901975}, !- Name
  ,                                       !- Schedule Rendering Name
  {09202b4e-00fd-4607-8e7d-4d02e2af23ad}, !- Sunday Schedule:Day Name
  {09202b4e-00fd-4607-8e7d-4d02e2af23ad}, !- Monday Schedule:Day Name
  {09202b4e-00fd-4607-8e7d-4d02e2af23ad}, !- Tuesday Schedule:Day Name
  {09202b4e-00fd-4607-8e7d-4d02e2af23ad}, !- Wednesday Schedule:Day Name
  {09202b4e-00fd-4607-8e7d-4d02e2af23ad}, !- Thursday Schedule:Day Name
  {09202b4e-00fd-4607-8e7d-4d02e2af23ad}, !- Friday Schedule:Day Name
  {09202b4e-00fd-4607-8e7d-4d02e2af23ad}, !- Saturday Schedule:Day Name
  {09202b4e-00fd-4607-8e7d-4d02e2af23ad}, !- Holiday Schedule:Day Name
  {13882e94-ddaa-4a1f-a9e8-d71c7d483243}, !- SummerDesignDay Schedule:Day Name
  {8403bcd0-0e4b-4087-ad72-68ecdc6fa7d5}, !- WinterDesignDay Schedule:Day Name
  {09202b4e-00fd-4607-8e7d-4d02e2af23ad}, !- CustomDay1 Schedule:Day Name
  {09202b4e-00fd-4607-8e7d-4d02e2af23ad}; !- CustomDay2 Schedule:Day Name

OS:Schedule:Day,
  {09202b4e-00fd-4607-8e7d-4d02e2af23ad}, !- Handle
  Office Activity Default Schedule,       !- Name
  {edcdbd66-85e3-4f70-94e9-9cdc3dcbf83f}, !- Schedule Type Limits Name
  ,                                       !- Interpolate to Timestep
  24,                                     !- Hour 1
  0,                                      !- Minute 1
  132;                                    !- Value Until Time 1

OS:Schedule:Day,
  {13882e94-ddaa-4a1f-a9e8-d71c7d483243}, !- Handle
  Office Activity Summer Design Day,      !- Name
  {edcdbd66-85e3-4f70-94e9-9cdc3dcbf83f}, !- Schedule Type Limits Name
  ,                                       !- Interpolate to Timestep
  24,                                     !- Hour 1
  0,                                      !- Minute 1
  132;                                    !- Value Until Time 1

OS:Schedule:Day,
  {8403bcd0-0e4b-4087-ad72-68ecdc6fa7d5}, !- Handle
  Office Activity Winter Design Day,      !- Name
  {edcdbd66-85e3-4f70-94e9-9cdc3dcbf83f}, !- Schedule Type Limits Name
  ,                                       !- Interpolate to Timestep
  24,                                     !- Hour 1
  0,                                      !- Minute 1
  132;                                    !- Value Until Time 1

OS:Material,
  {1a45b3b4-59aa-4d14-8066-727bbac4d48d}, !- Handle
  Metal Roofing,                          !- Name
  MediumSmooth,                           !- Roughness
  0.0015,                                 !- Thickness {m}
  45.006,                                 !- Conductivity {W/m-K}
  7680,                                   !- Density {kg/m3}
  418.4,                                  !- Specific Heat {J/kg-K}
  0.9,                                    !- Thermal Absorptance
  0.6,                                    !- Solar Absorptance
  0.6;                                    !- Visible Absorptance

OS:Schedule:Week,
  {e84e9785-d381-472d-9f2a-19f88e4e103a}, !- Handle
  Schedule:Week:Daily {63d04329-cce7-4fb2-9e84-97416413f510}, !- Name
  ,                                       !- Schedule Rendering Name
  {a3078c95-f4a3-4f9c-bd7f-1a0f7d673f2a}, !- Sunday Schedule:Day Name
  {7e46b4c7-00ef-4863-9cbf-9378e2c21f33}, !- Monday Schedule:Day Name
  {7e46b4c7-00ef-4863-9cbf-9378e2c21f33}, !- Tuesday Schedule:Day Name
  {7e46b4c7-00ef-4863-9cbf-9378e2c21f33}, !- Wednesday Schedule:Day Name
  {7e46b4c7-00ef-4863-9cbf-9378e2c21f33}, !- Thursday Schedule:Day Name
  {7e46b4c7-00ef-4863-9cbf-9378e2c21f33}, !- Friday Schedule:Day Name
  {6e49c7bc-1ffa-4e60-bf10-521c4feb983b}, !- Saturday Schedule:Day Name
  {7e46b4c7-00ef-4863-9cbf-9378e2c21f33}, !- Holiday Schedule:Day Name
  {8adc8820-3585-4f97-9203-8c1899124afc}, !- SummerDesignDay Schedule:Day Name
  {c3ac70d2-1624-403a-bc64-0479f018a690}, !- WinterDesignDay Schedule:Day Name
  {7e46b4c7-00ef-4863-9cbf-9378e2c21f33}, !- CustomDay1 Schedule:Day Name
  {7e46b4c7-00ef-4863-9cbf-9378e2c21f33}; !- CustomDay2 Schedule:Day Name

OS:Schedule:Day,
  {a3078c95-f4a3-4f9c-bd7f-1a0f7d673f2a}, !- Handle
  Large Office Bldg Light Rule 1 Day Schedule, !- Name
  {aee4e6d7-bb6d-4fbf-bbd8-4026dae60248}, !- Schedule Type Limits Name
  ,                                       !- Interpolate to Timestep
  24,                                     !- Hour 1
  0,                                      !- Minute 1
  0.05;                                   !- Value Until Time 1

OS:Schedule:Day,
  {7e46b4c7-00ef-4863-9cbf-9378e2c21f33}, !- Handle
  Large Office Bldg Light Default Schedule, !- Name
  {aee4e6d7-bb6d-4fbf-bbd8-4026dae60248}, !- Schedule Type Limits Name
  ,                                       !- Interpolate to Timestep
  5,                                      !- Hour 1
  0,                                      !- Minute 1
  0.05,                                   !- Value Until Time 1
  7,                                      !- Hour 2
  0,                                      !- Minute 2
  0.1,                                    !- Value Until Time 2
  8,                                      !- Hour 3
  0,                                      !- Minute 3
  0.3,                                    !- Value Until Time 3
  17,                                     !- Hour 4
  0,                                      !- Minute 4
  0.9,                                    !- Value Until Time 4
  18,                                     !- Hour 5
  0,                                      !- Minute 5
  0.7,                                    !- Value Until Time 5
  20,                                     !- Hour 6
  0,                                      !- Minute 6
  0.5,                                    !- Value Until Time 6
  22,                                     !- Hour 7
  0,                                      !- Minute 7
  0.3,                                    !- Value Until Time 7
  23,                                     !- Hour 8
  0,                                      !- Minute 8
  0.1,                                    !- Value Until Time 8
  24,                                     !- Hour 9
  0,                                      !- Minute 9
  0.05;                                   !- Value Until Time 9

OS:Schedule:Day,
  {6e49c7bc-1ffa-4e60-bf10-521c4feb983b}, !- Handle
  Large Office Bldg Light Rule 2 Day Schedule, !- Name
  {aee4e6d7-bb6d-4fbf-bbd8-4026dae60248}, !- Schedule Type Limits Name
  ,                                       !- Interpolate to Timestep
  6,                                      !- Hour 1
  0,                                      !- Minute 1
  0.05,                                   !- Value Until Time 1
  8,                                      !- Hour 2
  0,                                      !- Minute 2
  0.1,                                    !- Value Until Time 2
  14,                                     !- Hour 3
  0,                                      !- Minute 3