
Version,
  8.6;                                    !- Version Identifier

LifeCycleCost:Parameters,
  {efa2db35-1156-4250-a925-18ae96c8b2e6}, !- Name
  EndOfYear,                              !- Discounting Convention
  ConstantDollar,                         !- Inflation Approach
  0.03,                                   !- Real Discount Rate
  ,                                       !- Nominal Discount Rate
  ,                                       !- Inflation
  ,                                       !- Base Date Month
  2011,                                   !- Base Date Year
  ,                                       !- Service Date Month
  2011,                                   !- Service Date Year
  25,                                     !- Length of Study Period in Years
  ,                                       !- Tax rate
  None;                                   !- Depreciation Method

LifeCycleCost:UsePriceEscalation,
  U.S. Avg  Commercial-Electricity,       !- Name
  Electricity,                            !- Resource
  2011,                                   !- Escalation Start Year
  January,                                !- Escalation Start Month
  0.9838,                                 !- Year Escalation 1
  0.9730,                                 !- Year Escalation 2
  0.9632,                                 !- Year Escalation 3
  0.9611,                                 !- Year Escalation 4
  0.9571,                                 !- Year Escalation 5
  0.9553,                                 !- Year Escalation 6
  0.9539,                                 !- Year Escalation 7
  0.9521,                                 !- Year Escalation 8
  0.9546,                                 !- Year Escalation 9
  0.9550,                                 !- Year Escalation 10
  0.9553,                                 !- Year Escalation 11
  0.9564,                                 !- Year Escalation 12
  0.9575,                                 !- Year Escalation 13
  0.9596,                                 !- Year Escalation 14
  0.9618,                                 !- Year Escalation 15
  0.9614,                                 !- Year Escalation 16
  0.9618,                                 !- Year Escalation 17
  0.9618,                                 !- Year Escalation 18
  0.9593,                                 !- Year Escalation 19
  0.9589,                                 !- Year Escalation 20
  0.9607,                                 !- Year Escalation 21
  0.9625,                                 !- Year Escalation 22
  0.9650,                                 !- Year Escalation 23
  0.9708,                                 !- Year Escalation 24
  0.9751,                                 !- Year Escalation 25
  0.9762,                                 !- Year Escalation 26
  0.9766,                                 !- Year Escalation 27
  0.9766,                                 !- Year Escalation 28
  0.9769,                                 !- Year Escalation 29
  0.9773;                                 !- Year Escalation 30

LifeCycleCost:UsePriceEscalation,
  U.S. Avg  Commercial-Distillate Oil,    !- Name
  FuelOil#1,                              !- Resource
  2011,                                   !- Escalation Start Year
  January,                                !- Escalation Start Month
  0.9714,                                 !- Year Escalation 1
  0.9730,                                 !- Year Escalation 2
  0.9942,                                 !- Year Escalation 3
  1.0164,                                 !- Year Escalation 4
  1.0541,                                 !- Year Escalation 5
  1.0928,                                 !- Year Escalation 6
  1.1267,                                 !- Year Escalation 7
  1.1580,                                 !- Year Escalation 8
  1.1792,                                 !- Year Escalation 9
  1.1967,                                 !- Year Escalation 10
  1.2200,                                 !- Year Escalation 11
  1.2333,                                 !- Year Escalation 12
  1.2566,                                 !- Year Escalation 13
  1.2709,                                 !- Year Escalation 14
  1.2826,                                 !- Year Escalation 15
  1.2985,                                 !- Year Escalation 16
  1.3102,                                 !- Year Escalation 17
  1.3250,                                 !- Year Escalation 18
  1.3261,                                 !- Year Escalation 19
  1.3282,                                 !- Year Escalation 20
  1.3324,                                 !- Year Escalation 21
  1.3356,                                 !- Year Escalation 22
  1.3431,                                 !- Year Escalation 23
  1.3510,                                 !- Year Escalation 24
  1.3568,                                 !- Year Escalation 25
  1.3606,                                 !- Year Escalation 26
  1.3637,                                 !- Year Escalation 27
  1.3674,                                 !- Year Escalation 28
  1.3706,                                 !- Year Escalation 29
  1.3743;                                 !- Year Escalation 30

LifeCycleCost:UsePriceEscalation,
  U.S. Avg  Commercial-Residual Oil,      !- Name
  FuelOil#2,                              !- Resource
  2011,                                   !- Escalation Start Year
  January,                                !- Escalation Start Month
  0.8469,                                 !- Year Escalation 1
  0.8257,                                 !- Year Escalation 2
  0.8681,                                 !- Year Escalation 3
  0.8988,                                 !- Year Escalation 4
  0.9289,                                 !- Year Escalation 5
  0.9604,                                 !- Year Escalation 6
  0.9897,                                 !- Year Escalation 7
  1.0075,                                 !- Year Escalation 8
  1.0314,                                 !- Year Escalation 9
  1.0554,                                 !- Year Escalation 10
  1.0861,                                 !- Year Escalation 11
  1.1278,                                 !- Year Escalation 12
  1.1497,                                 !- Year Escalation 13
  1.1620,                                 !- Year Escalation 14
  1.1743,                                 !- Year Escalation 15
  1.1852,                                 !- Year Escalation 16
  1.1948,                                 !- Year Escalation 17
  1.2037,                                 !- Year Escalation 18
  1.2071,                                 !- Year Escalation 19
  1.2119,                                 !- Year Escalation 20
  1.2139,                                 !- Year Escalation 21
  1.2194,                                 !- Year Escalation 22
  1.2276,                                 !- Year Escalation 23
  1.2365,                                 !- Year Escalation 24
  1.2420,                                 !- Year Escalation 25
  1.2461,                                 !- Year Escalation 26
  1.2509,                                 !- Year Escalation 27
  1.2550,                                 !- Year Escalation 28
  1.2591,                                 !- Year Escalation 29
  1.2638;                                 !- Year Escalation 30

LifeCycleCost:UsePriceEscalation,
  U.S. Avg  Commercial-Natural gas,       !- Name
  NaturalGas,                             !- Resource
  2011,                                   !- Escalation Start Year
  January,                                !- Escalation Start Month
  0.9823,                                 !- Year Escalation 1
  0.9557,                                 !- Year Escalation 2
  0.9279,                                 !- Year Escalation 3
  0.9257,                                 !- Year Escalation 4
  0.9346,                                 !- Year Escalation 5
  0.9412,                                 !- Year Escalation 6
  0.9512,                                 !- Year Escalation 7
  0.9645,                                 !- Year Escalation 8
  0.9856,                                 !- Year Escalation 9
  1.0067,                                 !- Year Escalation 10
  1.0222,                                 !- Year Escalation 11
  1.0410,                                 !- Year Escalation 12
  1.0610,                                 !- Year Escalation 13
  1.0787,                                 !- Year Escalation 14
  1.0942,                                 !- Year Escalation 15
  1.1098,                                 !- Year Escalation 16
  1.1220,                                 !- Year Escalation 17
  1.1308,                                 !- Year Escalation 18
  1.1386,                                 !- Year Escalation 19
  1.1486,                                 !- Year Escalation 20
  1.1619,                                 !- Year Escalation 21
  1.1763,                                 !- Year Escalation 22
  1.1918,                                 !- Year Escalation 23
  1.2118,                                 !- Year Escalation 24
  1.2284,                                 !- Year Escalation 25
  1.2439,                                 !- Year Escalation 26
  1.2605,                                 !- Year Escalation 27
  1.2772,                                 !- Year Escalation 28
  1.2938,                                 !- Year Escalation 29
  1.3115;                                 !- Year Escalation 30

LifeCycleCost:UsePriceEscalation,
  U.S. Avg  Commercial-Coal,              !- Name
  Coal,                                   !- Resource
  2011,                                   !- Escalation Start Year
  January,                                !- Escalation Start Month
  0.9970,                                 !- Year Escalation 1
  1.0089,                                 !- Year Escalation 2
  1.0089,                                 !- Year Escalation 3
  0.9941,                                 !- Year Escalation 4
  0.9941,                                 !- Year Escalation 5
  1.0000,                                 !- Year Escalation 6
  1.0030,                                 !- Year Escalation 7
  1.0059,                                 !- Year Escalation 8
  1.0089,                                 !- Year Escalation 9
  1.0119,                                 !- Year Escalation 10
  1.0148,                                 !- Year Escalation 11
  1.0178,                                 !- Year Escalation 12
  1.0208,                                 !- Year Escalation 13
  1.0267,                                 !- Year Escalation 14
  1.0297,                                 !- Year Escalation 15
  1.0356,                                 !- Year Escalation 16
  1.0415,                                 !- Year Escalation 17
  1.0534,                                 !- Year Escalation 18
  1.0564,                                 !- Year Escalation 19
  1.0593,                                 !- Year Escalation 20
  1.0653,                                 !- Year Escalation 21
  1.0712,                                 !- Year Escalation 22
  1.0742,                                 !- Year Escalation 23
  1.0801,                                 !- Year Escalation 24
  1.0831,                                 !- Year Escalation 25
  1.0831,                                 !- Year Escalation 26
  1.0861,                                 !- Year Escalation 27
  1.0890,                                 !- Year Escalation 28
  1.0920,                                 !- Year Escalation 29
  1.0950;                                 !- Year Escalation 30

Building,
  Building 1,                             !- Name
  ,                                       !- North Axis {deg}
  ,                                       !- Terrain
  ,                                       !- Loads Convergence Tolerance Value
  ,                                       !- Temperature Convergence Tolerance Value {deltaC}
  ,                                       !- Solar Distribution
  ,                                       !- Maximum Number of Warmup Days
  ;                                       !- Minimum Number of Warmup Days

Zone,
  Thermal Zone 1 Thermal Zone,            !- Name
  -0,                                     !- Direction of Relative North {deg}
  3.5,                                    !- X Origin {m}
  0,                                      !- Y Origin {m}
  2.35,                                   !- Z Origin {m}
  ,                                       !- Type
  ,                                       !- Multiplier
  ,                                       !- Ceiling Height {m}
  ,                                       !- Volume {m3}
  ,                                       !- Floor Area {m2}
  ,                                       !- Zone Inside Convection Algorithm
  ;                                       !- Zone Outside Convection Algorithm

BuildingSurface:Detailed,
  Surface 25,                             !- Name
  Floor,                                  !- Surface Type
  Interior Floor,                         !- Construction Name
  Thermal Zone 1 Thermal Zone,            !- Zone Name
  Surface,                                !- Outside Boundary Condition
  Surface 17,                             !- Outside Boundary Condition Object
  NoSun,                                  !- Sun Exposure
  NoWind,                                 !- Wind Exposure
  ,                                       !- View Factor to Ground
  ,                                       !- Number of Vertices
  3.5, 7.65, 0,                           !- X,Y,Z Vertex 1 {m}
  3.5, 0, 0,                              !- X,Y,Z Vertex 2 {m}
  0, 0, 0,                                !- X,Y,Z Vertex 3 {m}
  0, 7.65, 0;                             !- X,Y,Z Vertex 4 {m}

BuildingSurface:Detailed,
  Surface 26,                             !- Name
  Wall,                                   !- Surface Type
  Interior Wall,                          !- Construction Name
  Thermal Zone 1 Thermal Zone,            !- Zone Name
  Surface,                                !- Outside Boundary Condition
  Surface 10,                             !- Outside Boundary Condition Object
  NoSun,                                  !- Sun Exposure
  NoWind,                                 !- Wind Exposure
  ,                                       !- View Factor to Ground
  ,                                       !- Number of Vertices
  0, 7.65, 2.35,                          !- X,Y,Z Vertex 1 {m}
  0, 7.65, 0,                             !- X,Y,Z Vertex 2 {m}
  0, 0, 0,                                !- X,Y,Z Vertex 3 {m}
  0, 0, 2.35;                             !- X,Y,Z Vertex 4 {m}

BuildingSurface:Detailed,
  Surface 27,                             !- Name
  Wall,                                   !- Surface Type
  ASHRAE 189.1-2009 ExtWall Mass ClimateZone 1, !- Construction Name
  Thermal Zone 1 Thermal Zone,            !- Zone Name
  Outdoors,                               !- Outside Boundary Condition
  ,                                       !- Outside Boundary Condition Object
  SunExposed,                             !- Sun Exposure
  WindExposed,                            !- Wind Exposure
  ,                                       !- View Factor to Ground
  ,                                       !- Number of Vertices
  3.5, 7.65, 2.35,                        !- X,Y,Z Vertex 1 {m}
  3.5, 7.65, 0,                           !- X,Y,Z Vertex 2 {m}
  0, 7.65, 0,                             !- X,Y,Z Vertex 3 {m}
  0, 7.65, 2.35;                          !- X,Y,Z Vertex 4 {m}

FenestrationSurface:Detailed,
  Sub Surface 10,                         !- Name
  Window,                                 !- Surface Type
  ASHRAE 189.1-2009 ExtWindow ClimateZone 1, !- Construction Name
  Surface 27,                             !- Building Surface Name
  ,                                       !- Outside Boundary Condition Object
  ,                                       !- View Factor to Ground
  ,                                       !- Shading Control Name
  ,                                       !- Frame and Divider Name
  ,                                       !- Multiplier
  ,                                       !- Number of Vertices
  2.25861729144817, 7.65, 1.59477266941056, !- X,Y,Z Vertex 1 {m}
  2.25861729144817, 7.65, 0.804772669410565, !- X,Y,Z Vertex 2 {m}
  0.468617291448165, 7.65, 0.804772669410565, !- X,Y,Z Vertex 3 {m}
  0.468617291448165, 7.65, 1.59477266941056; !- X,Y,Z Vertex 4 {m}

BuildingSurface:Detailed,
  Surface 28,                             !- Name
  Wall,                                   !- Surface Type
  Interior Wall,                          !- Construction Name
  Thermal Zone 1 Thermal Zone,            !- Zone Name
  Surface,                                !- Outside Boundary Condition
  Surface 32,                             !- Outside Boundary Condition Object
  NoSun,                                  !- Sun Exposure
  NoWind,                                 !- Wind Exposure
  ,                                       !- View Factor to Ground
  ,                                       !- Number of Vertices
  3.5, 0, 2.35,                           !- X,Y,Z Vertex 1 {m}
  3.5, 0, 0,                              !- X,Y,Z Vertex 2 {m}
  3.5, 7.65, 0,                           !- X,Y,Z Vertex 3 {m}
  3.5, 7.65, 2.35;                        !- X,Y,Z Vertex 4 {m}

BuildingSurface:Detailed,
  Surface 29,                             !- Name
  Ceiling,                                !- Surface Type
  Interior Ceiling,                       !- Construction Name
  Thermal Zone 1 Thermal Zone,            !- Zone Name
  Surface,                                !- Outside Boundary Condition
  Surface 43,                             !- Outside Boundary Condition Object
  NoSun,                                  !- Sun Exposure
  NoWind,                                 !- Wind Exposure
  ,                                       !- View Factor to Ground
  ,                                       !- Number of Vertices
  3.5, 0, 2.35,                           !- X,Y,Z Vertex 1 {m}
  3.5, 7.65, 2.35,                        !- X,Y,Z Vertex 2 {m}
  0, 7.65, 2.35,                          !- X,Y,Z Vertex 3 {m}
  0, 0, 2.35;                             !- X,Y,Z Vertex 4 {m}

BuildingSurface:Detailed,
  Surface 30,                             !- Name
  Wall,                                   !- Surface Type
  Interior Wall,                          !- Construction Name
  Thermal Zone 1 Thermal Zone,            !- Zone Name
  Surface,                                !- Outside Boundary Condition
  Surface 64,                             !- Outside Boundary Condition Object
  NoSun,                                  !- Sun Exposure
  NoWind,                                 !- Wind Exposure
  ,                                       !- View Factor to Ground
  ,                                       !- Number of Vertices
  0, 0, 2.35,                             !- X,Y,Z Vertex 1 {m}
  0, 0, 0,                                !- X,Y,Z Vertex 2 {m}
  3.5, 0, 0,                              !- X,Y,Z Vertex 3 {m}
  3.5, 0, 2.35;                           !- X,Y,Z Vertex 4 {m}

FenestrationSurface:Detailed,
  Sub Surface 9,                          !- Name
  Door,                                   !- Surface Type
  Exterior Door,                          !- Construction Name
  Surface 30,                             !- Building Surface Name
  Sub Surface 20,                         !- Outside Boundary Condition Object
  ,                                       !- View Factor to Ground
  ,                                       !- Shading Control Name
  ,                                       !- Frame and Divider Name
  ,                                       !- Multiplier
  ,                                       !- Number of Vertices
  0.989378975141567, 0, 1.76,             !- X,Y,Z Vertex 1 {m}
  0.989378975141567, 0, 0,                !- X,Y,Z Vertex 2 {m}
  1.70937897514157, 0, 0,                 !- X,Y,Z Vertex 3 {m}
  1.70937897514157, 0, 1.76;              !- X,Y,Z Vertex 4 {m}

ZoneInfiltration:DesignFlowRate,
  189.1-2009 - Office - IT_Room - CZ1-3 Infiltration 2, !- Name
  Thermal Zone 1 Thermal Zone,            !- Zone or ZoneList Name
  Office Infil Quarter On 1,              !- Schedule Name
  Flow/ExteriorArea,                      !- Design Flow Rate Calculation Method
  ,                                       !- Design Flow Rate {m3/s}
  ,                                       !- Flow per Zone Floor Area {m3/s-m2}
  0.00030226,                             !- Flow per Exterior Surface Area {m3/s-m2}
  ,                                       !- Air Changes per Hour {1/hr}
  ,                                       !- Constant Term Coefficient
  ,                                       !- Temperature Term Coefficient
  ,                                       !- Velocity Term Coefficient
  ;                                       !- Velocity Squared Term Coefficient

ZoneInfiltration:EffectiveLeakageArea,
  Space Infiltration Effective Leakage Area 1, !- Name
  Thermal Zone 1 Thermal Zone,            !- Zone Name
  Office Infil Quarter On 1,              !- Schedule Name
  100,                                    !- Effective Air Leakage Area {cm2}
  0.1,                                    !- Stack Coefficient
  0.1;                                    !- Wind Coefficient

ZoneControl:Thermostat,
  Thermal Zone 1 Thermal Zone Thermostat, !- Name
  Thermal Zone 1 Thermal Zone,            !- Zone or ZoneList Name
  Thermal Zone 1 Thermal Zone Thermostat Schedule, !- Control Type Schedule Name
  ThermostatSetpoint:DualSetpoint,        !- Control Object Type 1
  Thermostat Setpoint Dual Setpoint 1;    !- Control Name 1

Schedule:Compact,
  Thermal Zone 1 Thermal Zone Thermostat Schedule, !- Name
  Thermal Zone 1 Thermal Zone Thermostat Schedule Type Limits, !- Schedule Type Limits Name
  Through: 12/31,                         !- Field 1
  For: AllDays,                           !- Field 2
  Until: 24:00,                           !- Field 3
  4;                                      !- Field 4

ScheduleTypeLimits,
  Thermal Zone 1 Thermal Zone Thermostat Schedule Type Limits, !- Name
  0,                                      !- Lower Limit Value {BasedOnField A3}
  4,                                      !- Upper Limit Value {BasedOnField A3}
  DISCRETE;                               !- Numeric Type

ThermostatSetpoint:DualSetpoint,
  Thermostat Setpoint Dual Setpoint 1,    !- Name
  Large Office ClgSetp 2,                 !- Heating Setpoint Temperature Schedule Name
  Large Office ClgSetp 1;                 !- Cooling Setpoint Temperature Schedule Name

ScheduleTypeLimits,
  Temperature 5,                          !- Name
  ,                                       !- Lower Limit Value {BasedOnField A3}
  ,                                       !- Upper Limit Value {BasedOnField A3}
  Continuous,                             !- Numeric Type
  temperature;                            !- Unit Type

Schedule:Day:Interval,
  Large Office ClgSetp Default Schedule 2, !- Name
  Temperature 5,                          !- Schedule Type Limits Name
  No,                                     !- Interpolate to Timestep
  06:00,                                  !- Time 1 {hh:mm}
  26.7,                                   !- Value Until Time 1
  22:00,                                  !- Time 2 {hh:mm}
  24,                                     !- Value Until Time 2
  24:00,                                  !- Time 3 {hh:mm}
  26.7;                                   !- Value Until Time 3

Schedule:Day:Interval,
  Large Office ClgSetp Rule 2 Day Schedule 2, !- Name
  Temperature 5,                          !- Schedule Type Limits Name
  No,                                     !- Interpolate to Timestep
  06:00,                                  !- Time 1 {hh:mm}
  26.7,                                   !- Value Until Time 1
  18:00,                                  !- Time 2 {hh:mm}
  24,                                     !- Value Until Time 2
  24:00,                                  !- Time 3 {hh:mm}
  26.7;                                   !- Value Until Time 3

Schedule:Day:Interval,
  Large Office ClgSetp Rule 1 Day Schedule 2, !- Name
  Temperature 5,                          !- Schedule Type Limits Name
  No,                                     !- Interpolate to Timestep
  24:00,                                  !- Time 1 {hh:mm}
  26.7;                                   !- Value Until Time 1

Schedule:Week:Daily,
  Schedule:Week:Daily {6ef7e0f2-1d2c-4ee6-9084-5d8caa1945de}, !- Name
  Large Office ClgSetp Default Schedule 2, !- Sunday Schedule:Day Name
  Large Office ClgSetp Default Schedule 2, !- Monday Schedule:Day Name
  Large Office ClgSetp Default Schedule 2, !- Tuesday Schedule:Day Name
  Large Office ClgSetp Default Schedule 2, !- Wednesday Schedule:Day Name
  Large Office ClgSetp Default Schedule 2, !- Thursday Schedule:Day Name
  Large Office ClgSetp Default Schedule 2, !- Friday Schedule:Day Name
  Large Office ClgSetp Rule 2 Day Schedule 2, !- Saturday Schedule:Day Name
  Large Office ClgSetp Default Schedule 2, !- Holiday Schedule:Day Name
  Large Office ClgSetp Summer Design Day 2, !- SummerDesignDay Schedule:Day Name
  Large Office ClgSetp Winter Design Day 2, !- WinterDesignDay Schedule:Day Name
  Large Office ClgSetp Default Schedule 2, !- CustomDay1 Schedule:Day Name
  Large Office ClgSetp Default Schedule 2; !- CustomDay2 Schedule:Day Name

Schedule:Week:Daily,
  Schedule:Week:Daily {0b049e0d-5a83-403c-a8c2-a09ccd730c04}, !- Name
  Large Office ClgSetp Rule 1 Day Schedule 2, !- Sunday Schedule:Day Name
  Large Office ClgSetp Default Schedule 2, !- Monday Schedule:Day Name
  Large Office ClgSetp Default Schedule 2, !- Tuesday Schedule:Day Name
  Large Office ClgSetp Default Schedule 2, !- Wednesday Schedule:Day Name
  Large Office ClgSetp Default Schedule 2, !- Thursday Schedule:Day Name
  Large Office ClgSetp Default Schedule 2, !- Friday Schedule:Day Name
  Large Office ClgSetp Rule 2 Day Schedule 2, !- Saturday Schedule:Day Name
  Large Office ClgSetp Default Schedule 2, !- Holiday Schedule:Day Name
  Large Office ClgSetp Summer Design Day 2, !- SummerDesignDay Schedule:Day Name
  Large Office ClgSetp Winter Design Day 2, !- WinterDesignDay Schedule:Day Name
  Large Office ClgSetp Default Schedule 2, !- CustomDay1 Schedule:Day Name
  Large Office ClgSetp Default Schedule 2; !- CustomDay2 Schedule:Day Name

Schedule:Year,
  Large Office ClgSetp 2,                 !- Name
  Temperature 5,                          !- Schedule Type Limits Name
  Schedule:Week:Daily {6ef7e0f2-1d2c-4ee6-9084-5d8caa1945de}, !- Schedule:Week Name 1
  1,                                      !- Start Month 1
  1,                                      !- Start Day 1
  1,                                      !- End Month 1
  3,                                      !- End Day 1
  Schedule:Week:Daily {0b049e0d-5a83-403c-a8c2-a09ccd730c04}, !- Schedule:Week Name 2
  1,                                      !- Start Month 2
  4,                                      !- Start Day 2
  12,                                     !- End Month 2
  31;                                     !- End Day 2

Schedule:Day:Interval,
  Large Office ClgSetp Summer Design Day 2, !- Name
  Temperature 5,                          !- Schedule Type Limits Name
  No,                                     !- Interpolate to Timestep
  06:00,                                  !- Time 1 {hh:mm}
  26.7,                                   !- Value Until Time 1
  22:00,                                  !- Time 2 {hh:mm}
  24,                                     !- Value Until Time 2
  24:00,                                  !- Time 3 {hh:mm}
  26.7;                                   !- Value Until Time 3

Schedule:Day:Interval,
  Large Office ClgSetp Winter Design Day 2, !- Name
  Temperature 5,                          !- Schedule Type Limits Name
  No,                                     !- Interpolate to Timestep
  24:00,                                  !- Time 1 {hh:mm}
  26.7;                                   !- Value Until Time 1

Schedule:Day:Interval,
  Large Office ClgSetp Default Schedule 1, !- Name
  Temperature 5,                          !- Schedule Type Limits Name
  No,                                     !- Interpolate to Timestep
  06:00,                                  !- Time 1 {hh:mm}
  26.7,                                   !- Value Until Time 1
  22:00,                                  !- Time 2 {hh:mm}
  24,                                     !- Value Until Time 2
  24:00,                                  !- Time 3 {hh:mm}
  26.7;                                   !- Value Until Time 3

Schedule:Day:Interval,
  Large Office ClgSetp Rule 2 Day Schedule 1, !- Name
  Temperature 5,                          !- Schedule Type Limits Name
  No,                                     !- Interpolate to Timestep
  06:00,                                  !- Time 1 {hh:mm}
  26.7,                                   !- Value Until Time 1
  18:00,                                  !- Time 2 {hh:mm}
  24,                                     !- Value Until Time 2
  24:00,                                  !- Time 3 {hh:mm}
  26.7;                                   !- Value Until Time 3

Schedule:Day:Interval,
  Large Office ClgSetp Rule 1 Day Schedule 1, !- Name
  Temperature 5,                          !- Schedule Type Limits Name