
OS:Version,
  {6c42f73b-5ce1-455d-b1f7-75c4e0540002}, !- Handle
  2.0.4;                                  !- Version Identifier

OS:Facility,
  {92f35bb0-89ba-4b14-91b9-1a736487c298}; !- Handle

OS:Building,
  {93ae201b-b24a-43f3-8af6-20e671cfc347}, !- Handle
  ,                                       !- Name
  ,                                       !- Building Sector Type
  ,                                       !- North Axis {deg}
  ,                                       !- Nominal Floor to Floor Height {m}
  ,                                       !- Space Type Name
  ,                                       !- Default Construction Set Name
  ;                                       !- Default Schedule Set Name

OS:Site,
  {b2f24fa4-d453-4354-bbdd-1f7f0575e447}, !- Handle
  Site 1,                                 !- Name
  ,                                       !- Latitude {deg}
  ,                                       !- Longitude {deg}
  ,                                       !- Time Zone {hr}
  ,                                       !- Elevation {m}
  ;                                       !- Terrain

OS:YearDescription,
  {96637bb1-6526-4af7-9f2d-a39050fb9294}; !- Handle

OS:ClimateZones,
  {fff9cc27-4763-40a5-b861-239b2846c068}, !- Handle
  ,                                       !- Active Institution
  ,                                       !- Active Year
  ,                                       !- Climate Zone Institution Name 1
  ,                                       !- Climate Zone Document Name 1
  ,                                       !- Climate Zone Document Year 1
  ,                                       !- Climate Zone Value 1
  CEC,                                    !- Climate Zone Institution Name 2
  California Climate Zone Descriptions,   !- Climate Zone Document Name 2
  1995,                                   !- Climate Zone Document Year 2
  ;                                       !- Climate Zone Value 2

OS:SimulationControl,
  {db9da1f7-acde-42e3-8e64-5adffc12609e}; !- Handle

OS:Sizing:Parameters,
  {4d4cca06-23ae-40b2-b98e-abbe3e2b7ff7}, !- Handle
  1.25,                                   !- Heating Sizing Factor
  1.15;                                   !- Cooling Sizing Factor

OS:Timestep,
  {fb1380ca-65f8-4a09-a292-514fe195a671}, !- Handle
  6;                                      !- Number of Timesteps per Hour

OS:ShadowCalculation,
  {b53107da-c77d-4880-9d10-d30089bc8b6c}, !- Handle
  20,                                     !- Calculation Frequency
  15000;                                  !- Maximum Figures in Shadow Overlap Calculations

OS:HeatBalanceAlgorithm,
  {615902c4-cacf-4b84-bb98-97f725b58d52}, !- Handle
  ConductionTransferFunction,             !- Algorithm
  200;                                    !- Surface Temperature Upper Limit {C}

OS:RunPeriod,
  {a3cbfac1-e3d1-42e1-986c-720a04fb61aa}, !- Handle
  Run Period 1,                           !- Name
  1,                                      !- Begin Month
  1,                                      !- Begin Day of Month
  12,                                     !- End Month
  31,                                     !- End Day of Month
  ,                                       !- Use Weather File Holidays and Special Days
  ,                                       !- Use Weather File Daylight Saving Period
  ,                                       !- Apply Weekend Holiday Rule
  ,                                       !- Use Weather File Rain Indicators
  ,                                       !- Use Weather File Snow Indicators
  ;                                       !- Number of Times Runperiod to be Repeated

OS:LifeCycleCost:Parameters,
  {7c98d47d-7342-4aad-8198-6f4ace2bef06}, !- Handle
  ,                                       !- Analysis Type
  ,                                       !- Discounting Convention
  ,                                       !- Inflation Approach
  ,                                       !- Real Discount Rate
  ,                                       !- Nominal Discount Rate
  ,                                       !- Inflation
  ,                                       !- Base Date Month
  ,                                       !- Base Date Year
  ,                                       !- Service Date Month
  ,                                       !- Service Date Year
  ;                                       !- Length of Study Period in Years

OS:Schedule:Constant,
  {1c882bd4-6b1a-43bb-bd81-a05af4d8f790}, !- Handle
  Always On Discrete,                     !- Name
  {778dadae-1670-4dd7-9649-163789dc836a}, !- Schedule Type Limits Name
  1;                                      !- Value

OS:ScheduleTypeLimits,
  {778dadae-1670-4dd7-9649-163789dc836a}, !- Handle
  OnOff,                                  !- Name
  0,                                      !- Lower Limit Value
  1,                                      !- Upper Limit Value
  Discrete,                               !- Numeric Type
  Availability;                           !- Unit Type

OS:Schedule:Ruleset,
  {d0726def-0df8-415c-bd5e-9b1e142f9d67}, !- Handle
  Chilled_Water_Temperature,              !- Name
  {8c4cfad6-9e85-452d-8ab8-18f120fa0dab}, !- Schedule Type Limits Name
  {cb0ccad7-ebb3-4469-8b26-f819715b3076}, !- Default Day Schedule Name
  {58e8d153-e92b-402f-bdeb-ea521fe7916c}, !- Summer Design Day Schedule Name
  {cbe410e3-94f4-485d-b486-c5d14310864b}; !- Winter Design Day Schedule Name

OS:Schedule:Day,
  {cb0ccad7-ebb3-4469-8b26-f819715b3076}, !- Handle
  Chilled_Water_Temperature_Default,      !- Name
  {8c4cfad6-9e85-452d-8ab8-18f120fa0dab}, !- Schedule Type Limits Name
  ,                                       !- Interpolate to Timestep
  24,                                     !- Hour 1
  0,                                      !- Minute 1
  6.7;                                    !- Value Until Time 1

OS:Schedule:Day,
  {58e8d153-e92b-402f-bdeb-ea521fe7916c}, !- Handle
  Chilled_Water_Temperature_Summer_Design_Day, !- Name
  {8c4cfad6-9e85-452d-8ab8-18f120fa0dab}, !- Schedule Type Limits Name
  ,                                       !- Interpolate to Timestep
  24,                                     !- Hour 1
  0,                                      !- Minute 1
  6.7;                                    !- Value Until Time 1

OS:Schedule:Day,
  {cbe410e3-94f4-485d-b486-c5d14310864b}, !- Handle
  Chilled_Water_Temperature_Winter_Design_Day, !- Name
  {8c4cfad6-9e85-452d-8ab8-18f120fa0dab}, !- Schedule Type Limits Name
  ,                                       !- Interpolate to Timestep
  24,                                     !- Hour 1
  0,                                      !- Minute 1
  6.7;                                    !- Value Until Time 1

OS:Schedule:Ruleset,
  {bf9ac278-9c3d-4c05-b8de-bafc8f5da27f}, !- Handle
  Deck_Temperature,                       !- Name
  {8c4cfad6-9e85-452d-8ab8-18f120fa0dab}, !- Schedule Type Limits Name
  {c0a0d971-a3a1-4441-a209-b0bdf95409a9}, !- Default Day Schedule Name
  {2304f488-bc3c-4f28-9760-3578f438ac95}, !- Summer Design Day Schedule Name
  {4b0f07e5-9e4b-41a7-accc-bd22b9ea21a7}; !- Winter Design Day Schedule Name

OS:Schedule:Day,
  {c0a0d971-a3a1-4441-a209-b0bdf95409a9}, !- Handle
  Deck_Temperature_Default,               !- Name
  {8c4cfad6-9e85-452d-8ab8-18f120fa0dab}, !- Schedule Type Limits Name
  ,                                       !- Interpolate to Timestep
  24,                                     !- Hour 1
  0,                                      !- Minute 1
  12.8;                                   !- Value Until Time 1

OS:Schedule:Day,
  {2304f488-bc3c-4f28-9760-3578f438ac95}, !- Handle
  Deck_Temperature_Summer_Design_Day,     !- Name
  {8c4cfad6-9e85-452d-8ab8-18f120fa0dab}, !- Schedule Type Limits Name
  ,                                       !- Interpolate to Timestep
  24,                                     !- Hour 1
  0,                                      !- Minute 1
  12.8;                                   !- Value Until Time 1

OS:Schedule:Day,
  {4b0f07e5-9e4b-41a7-accc-bd22b9ea21a7}, !- Handle
  Deck_Temperature_Winter_Design_Day,     !- Name
  {8c4cfad6-9e85-452d-8ab8-18f120fa0dab}, !- Schedule Type Limits Name
  ,                                       !- Interpolate to Timestep
  24,                                     !- Hour 1
  0,                                      !- Minute 1
  12.8;                                   !- Value Until Time 1

OS:AirLoopHVAC,
  {348a5ca3-8cc8-48ea-b2d0-023003ed4f73}, !- Handle
  VAV with PFP Boxes and Reheat,          !- Name
  ,                                       !- Controller List Name
  {1c882bd4-6b1a-43bb-bd81-a05af4d8f790}, !- Availability Schedule
  ,                                       !- Availability Manager
  AutoSize,                               !- Design Supply Air Flow Rate {m3/s}
  ,                                       !- Branch List Name
  ,                                       !- Connector List Name
  {cc46e07d-abd1-46de-99a3-65fae5c1d75d}, !- Supply Side Inlet Node Name
  {7b47c22d-9794-42d8-9706-676367abda91}, !- Demand Side Outlet Node Name
  {04b3779b-02c5-40a0-81c2-131dc4c3cb52}, !- Demand Side Inlet Node A
  {8708dcd6-4c8d-46b6-b7ec-74de0e28a32c}, !- Supply Side Outlet Node A
  ,                                       !- Demand Side Inlet Node B
  ;                                       !- Supply Side Outlet Node B

OS:Node,
  {1bb78efc-0c92-481a-a75f-ed389bfa9b72}, !- Handle
  Node 1,                                 !- Name
  {cc46e07d-abd1-46de-99a3-65fae5c1d75d}, !- Inlet Port
  {b1d51d61-0627-4f13-bb3d-3f47f43d5616}; !- Outlet Port

OS:Node,
  {6f35024f-4272-4383-8f84-933233f1ea9f}, !- Handle
  Node 2,                                 !- Name
  {e850fb07-8073-4616-a2d9-b6c36ef9c77a}, !- Inlet Port
  {8708dcd6-4c8d-46b6-b7ec-74de0e28a32c}; !- Outlet Port

OS:Connection,
  {cc46e07d-abd1-46de-99a3-65fae5c1d75d}, !- Handle
  {ad98c5b7-e460-4839-b91e-28327164c53e}, !- Name
  {348a5ca3-8cc8-48ea-b2d0-023003ed4f73}, !- Source Object
  8,                                      !- Outlet Port
  {1bb78efc-0c92-481a-a75f-ed389bfa9b72}, !- Target Object
  2;                                      !- Inlet Port

OS:Connection,
  {8708dcd6-4c8d-46b6-b7ec-74de0e28a32c}, !- Handle
  {fe9c2aa8-fff7-45b3-8f60-abd0fc7147eb}, !- Name
  {6f35024f-4272-4383-8f84-933233f1ea9f}, !- Source Object
  3,                                      !- Outlet Port
  {348a5ca3-8cc8-48ea-b2d0-023003ed4f73}, !- Target Object
  11;                                     !- Inlet Port

OS:Node,
  {eb4459bf-1c84-44a8-94d8-d395c6d27f62}, !- Handle
  Node 3,                                 !- Name
  {04b3779b-02c5-40a0-81c2-131dc4c3cb52}, !- Inlet Port
  {0728873d-f854-4d12-a8fe-8806f2f9aa98}; !- Outlet Port

OS:Node,
  {cca4a5ae-7af7-4db5-823c-ec1462937a39}, !- Handle
  Node 4,                                 !- Name
  {1489cb5f-eaba-4e05-976a-a0bb25eaece1}, !- Inlet Port
  {7b47c22d-9794-42d8-9706-676367abda91}; !- Outlet Port

OS:Node,
  {0a6814b4-cb71-49b6-a94e-923879a4d660}, !- Handle
  Node 5,                                 !- Name
  {90c4fb5f-9eb6-4dbf-973f-3d6fc60fd473}, !- Inlet Port
  {52969e19-16c8-49c1-892e-8ac0e1151d05}; !- Outlet Port

OS:Connection,
  {04b3779b-02c5-40a0-81c2-131dc4c3cb52}, !- Handle
  {1725733b-a3a6-4bfd-b07a-7a04eb216487}, !- Name
  {348a5ca3-8cc8-48ea-b2d0-023003ed4f73}, !- Source Object
  10,                                     !- Outlet Port
  {eb4459bf-1c84-44a8-94d8-d395c6d27f62}, !- Target Object
  2;                                      !- Inlet Port

OS:Connection,
  {7b47c22d-9794-42d8-9706-676367abda91}, !- Handle
  {9fc0e001-6e04-4f81-8359-abf66268cf91}, !- Name
  {cca4a5ae-7af7-4db5-823c-ec1462937a39}, !- Source Object
  3,                                      !- Outlet Port
  {348a5ca3-8cc8-48ea-b2d0-023003ed4f73}, !- Target Object
  9;                                      !- Inlet Port

OS:AirLoopHVAC:ZoneSplitter,
  {36a70953-9a2d-4621-9ce0-142bb5778af9}, !- Handle
  Air Loop HVAC Zone Splitter 1,          !- Name
  {0728873d-f854-4d12-a8fe-8806f2f9aa98}, !- Inlet Node Name
  {90c4fb5f-9eb6-4dbf-973f-3d6fc60fd473}; !- Outlet Node Name 1

OS:AirLoopHVAC:ZoneMixer,
  {019e3b46-1f81-4702-a066-f54a4608cd1c}, !- Handle
  Air Loop HVAC Zone Mixer 1,             !- Name
  {1489cb5f-eaba-4e05-976a-a0bb25eaece1}, !- Outlet Node Name
  {52969e19-16c8-49c1-892e-8ac0e1151d05}; !- Inlet Node Name 1

OS:Connection,
  {0728873d-f854-4d12-a8fe-8806f2f9aa98}, !- Handle
  {15c97653-d6a0-4503-b5ff-efa25a813998}, !- Name
  {eb4459bf-1c84-44a8-94d8-d395c6d27f62}, !- Source Object
  3,                                      !- Outlet Port
  {36a70953-9a2d-4621-9ce0-142bb5778af9}, !- Target Object
  2;                                      !- Inlet Port

OS:Connection,
  {52969e19-16c8-49c1-892e-8ac0e1151d05}, !- Handle
  {2b7f4f3e-f8b3-4a52-87f0-24bd2edb39f2}, !- Name
  {0a6814b4-cb71-49b6-a94e-923879a4d660}, !- Source Object
  3,                                      !- Outlet Port
  {019e3b46-1f81-4702-a066-f54a4608cd1c}, !- Target Object
  3;                                      !- Inlet Port

OS:Connection,
  {1489cb5f-eaba-4e05-976a-a0bb25eaece1}, !- Handle
  {e598b6d6-3ecb-4b86-9f2d-e9eda4882585}, !- Name
  {019e3b46-1f81-4702-a066-f54a4608cd1c}, !- Source Object
  2,                                      !- Outlet Port
  {cca4a5ae-7af7-4db5-823c-ec1462937a39}, !- Target Object
  2;                                      !- Inlet Port

OS:Sizing:System,
  {08c06288-a1c0-4291-8071-c6ddf37379c0}, !- Handle
  {348a5ca3-8cc8-48ea-b2d0-023003ed4f73}, !- AirLoop Name
  Sensible,                               !- Type of Load to Size On
  Autosize,                               !- Design Outdoor Air Flow Rate {m3/s}
  0.3,                                    !- Minimum System Air Flow Ratio
  7,                                      !- Preheat Design Temperature {C}
  0.008,                                  !- Preheat Design Humidity Ratio {kg-H2O/kg-Air}
  12.8,                                   !- Precool Design Temperature {C}
  0.008,                                  !- Precool Design Humidity Ratio {kg-H2O/kg-Air}
  12.8,                                   !- Central Cooling Design Supply Air Temperature {C}
  16.7,                                   !- Central Heating Design Supply Air Temperature {C}
  NonCoincident,                          !- Sizing Option
  Yes,                                    !- 100% Outdoor Air in Cooling
  Yes,                                    !- 100% Outdoor Air in Heating
  0.0085,                                 !- Central Cooling Design Supply Air Humidity Ratio {kg-H2O/kg-Air}
  0.008,                                  !- Central Heating Design Supply Air Humidity Ratio {kg-H2O/kg-Air}
  DesignDay,                              !- Cooling Design Air Flow Method
  0,                                      !- Cooling Design Air Flow Rate {m3/s}
  DesignDay,                              !- Heating Design Air Flow Method
  0,                                      !- Heating Design Air Flow Rate {m3/s}
  ZoneSum,                                !- System Outdoor Air Method
  1,                                      !- Zone Maximum Outdoor Air Fraction {dimensionless}
  0.0099676501,                           !- Cooling Supply Air Flow Rate Per Floor Area {m3/s-m2}
  1,                                      !- Cooling Fraction of Autosized Cooling Supply Air Flow Rate
  3.9475456e-005,                         !- Cooling Supply Air Flow Rate Per Unit Cooling Capacity {m3/s-W}
  0.0099676501,                           !- Heating Supply Air Flow Rate Per Floor Area {m3/s-m2}
  1,                                      !- Heating Fraction of Autosized Heating Supply Air Flow Rate
  1,                                      !- Heating Fraction of Autosized Cooling Supply Air Flow Rate
  3.1588213e-005,                         !- Heating Supply Air Flow Rate Per Unit Heating Capacity {m3/s-W}
  CoolingDesignCapacity,                  !- Cooling Design Capacity Method
  autosize,                               !- Cooling Design Capacity {W}
  234.7,                                  !- Cooling Design Capacity Per Floor Area {W/m2}
  1,                                      !- Fraction of Autosized Cooling Design Capacity
  HeatingDesignCapacity,                  !- Heating Design Capacity Method
  autosize,                               !- Heating Design Capacity {W}
  157,                                    !- Heating Design Capacity Per Floor Area {W/m2}
  1,                                      !- Fraction of Autosized Heating Design Capacity
  OnOff;                                  !- Central Cooling Capacity Control Method

OS:Coil:Cooling:Water,
  {07011212-0d09-4ef4-9306-0ec745142ec9}, !- Handle
  Coil Cooling Water 1,                   !- Name
  {1c882bd4-6b1a-43bb-bd81-a05af4d8f790}, !- Availability Schedule Name
  ,                                       !- Design Water Flow Rate {m3/s}
  ,                                       !- Design Air Flow Rate {m3/s}
  ,                                       !- Design Inlet Water Temperature {C}
  ,                                       !- Design Inlet Air Temperature {C}
  ,                                       !- Design Outlet Air Temperature {C}
  ,                                       !- Design Inlet Air Humidity Ratio {kg-H2O/kg-air}
  ,                                       !- Design Outlet Air Humidity Ratio {kg-H2O/kg-air}
  {c926eae3-5257-4750-87c0-652b512f24ee}, !- Water Inlet Node Name
  {9b335e68-11e7-47ef-a33f-d0582eb2f5a9}, !- Water Outlet Node Name
  ,                                       !- Air Inlet Node Name
  ,                                       !- Air Outlet Node Name
  ,                                       !- Type of Analysis
  ;                                       !- Heat Exchanger Configuration

OS:SetpointManager:Scheduled,
  {f5f1c24e-d117-4b39-aa8c-be45d3d59345}, !- Handle
  Setpoint Manager Scheduled 1,           !- Name
  Temperature,                            !- Control Variable
  {bf9ac278-9c3d-4c05-b8de-bafc8f5da27f}, !- Schedule Name
  {6f35024f-4272-4383-8f84-933233f1ea9f}; !- Setpoint Node or NodeList Name

OS:ScheduleTypeLimits,
  {8c4cfad6-9e85-452d-8ab8-18f120fa0dab}, !- Handle
  Temperature,                            !- Name
  ,                                       !- Lower Limit Value
  ,                                       !- Upper Limit Value
  Continuous,                             !- Numeric Type
  Temperature;                            !- Unit Type

OS:Controller:OutdoorAir,
  {986bd2c3-45b9-4506-bbd3-72cc4e8d7afb}, !- Handle
  Controller Outdoor Air 1,               !- Name
  ,                                       !- Relief Air Outlet Node Name
  ,                                       !- Return Air Node Name
  ,                                       !- Mixed Air Node Name
  ,                                       !- Actuator Node Name
  Autosize,                               !- Minimum Outdoor Air Flow Rate {m3/s}
  Autosize,                               !- Maximum Outdoor Air Flow Rate {m3/s}
  NoEconomizer,                           !- Economizer Control Type
  ModulateFlow,                           !- Economizer Control Action Type
  28,                                     !- Economizer Maximum Limit Dry-Bulb Temperature {C}
  64000,                                  !- Economizer Maximum Limit Enthalpy {J/kg}
  ,                                       !- Economizer Maximum Limit Dewpoint Temperature {C}
  ,                                       !- Electronic Enthalpy Limit Curve Name
  -100,                                   !- Economizer Minimum Limit Dry-Bulb Temperature {C}
  NoLockout,                              !- Lockout Type
  FixedMinimum,                           !- Minimum Limit Type
  ,                                       !- Minimum Outdoor Air Schedule Name
  ,                                       !- Minimum Fraction of Outdoor Air Schedule Name
  ,                                       !- Maximum Fraction of Outdoor Air Schedule Name
  {6efa1cd3-43ca-480d-8524-dc3ac39222c8}, !- Controller Mechanical Ventilation
  ,                                       !- Time of Day Economizer Control Schedule Name
  No,                                     !- High Humidity Control
  ,                                       !- Humidistat Control Zone Name
  ,                                       !- High Humidity Outdoor Air Flow Ratio
  ,                                       !- Control High Indoor Humidity Based on Outdoor Humidity Ratio
  BypassWhenWithinEconomizerLimits;       !- Heat Recovery Bypass Control Type

OS:Controller:MechanicalVentilation,
  {6efa1cd3-43ca-480d-8524-dc3ac39222c8}, !- Handle
  Controller Mechanical Ventilation 1,    !- Name
  {1c882bd4-6b1a-43bb-bd81-a05af4d8f790}, !- Availability Schedule
  ,                                       !- Demand Controlled Ventilation
  ZoneSum;                                !- System Outdoor Air Method

OS:AirLoopHVAC:OutdoorAirSystem,
  {33289e08-7c48-4f82-8038-e44adb86bf4a}, !- Handle
  Air Loop HVAC Outdoor Air System 1,     !- Name
  {986bd2c3-45b9-4506-bbd3-72cc4e8d7afb}, !- Controller Name
  ,                                       !- Outdoor Air Equipment List Name
  ,                                       !- Availability Manager List Name
  {fff309a6-4425-4c43-8559-f5d3cc58dd4a}, !- Mixed Air Node Name
  {8ce16c6c-a0f4-4d10-995f-6881f58d3e7c}, !- Outdoor Air Stream Node Name
  {d84c6241-4c6c-4f83-b21e-46ae1c834821}, !- Relief Air Stream Node Name
  {b1d51d61-0627-4f13-bb3d-3f47f43d5616}; !- Return Air Stream Node Name

OS:Node,
  {2dabd483-e06b-41dd-86dd-36d4142b6144}, !- Handle
  Node 6,                                 !- Name
  ,                                       !- Inlet Port
  {8ce16c6c-a0f4-4d10-995f-6881f58d3e7c}; !- Outlet Port

OS:Node,
  {89138384-38f5-476b-80c1-d1f8fc9cbfaa}, !- Handle
  Node 7,                                 !- Name
  {d84c6241-4c6c-4f83-b21e-46ae1c834821}, !- Inlet Port
  ;                                       !- Outlet Port

OS:Connection,
  {b1d51d61-0627-4f13-bb3d-3f47f43d5616}, !- Handle
  {f195b137-15bf-4328-aa3e-6d0dad0f4d0f}, !- Name
  {1bb78efc-0c92-481a-a75f-ed389bfa9b72}, !- Source Object
  3,                                      !- Outlet Port
  {33289e08-7c48-4f82-8038-e44adb86bf4a}, !- Target Object
  8;                                      !- Inlet Port

OS:Node,
  {12689ad7-ac7f-40c8-a6e0-dd27bf35dfba}, !- Handle
  Node 8,                                 !- Name
  ,                                       !- Inlet Port
  ;                                       !- Outlet Port

OS:PlantLoop,
  {eaa48519-f424-4b45-bff1-f17f59d50746}, !- Handle
  Chilled Water Loop,                     !- Name
  ,                                       !- Fluid Type
  ,                                       !- User Defined Fluid Type
  ,                                       !- Plant Equipment Operation Heating Load
  ,                                       !- Plant Equipment Operation Cooling Load
  ,                                       !- Primary Plant Equipment Operation Scheme
  {85186040-27e3-4342-a2c6-e844decba4bf}, !- Loop Temperature Setpoint Node Name
  ,                                       !- Maximum Loop Temperature {C}
  ,                                       !- Minimum Loop Temperature {C}
  ,                                       !- Maximum Loop Flow Rate {m3/s}
  ,                                       !- Minimum Loop Flow Rate {m3/s}
  Autocalculate,                          !- Plant Loop Volume {m3}
  {da99ace1-072c-4023-910f-0987691c9751}, !- Plant Side Inlet Node Name
  {c8948dc7-e12b-4606-ae6f-78e01f5074d8}, !- Plant Side Outlet Node Name
  ,                                       !- Plant Side Branch List Name
  {a0c1a6ec-2085-46bf-a270-a0a14f3a7c8c}, !- Demand Side Inlet Node Name
  {53ac0ef1-f8a2-4771-8509-036780e00689}, !- Demand Side Outlet Node Name
  ,                                       !- Demand Side Branch List Name
  ,                                       !- Demand Side Connector List Name
  Optimal,                                !- Load Distribution Scheme
  ,                                       !- Availability Manager List Name
  ,                                       !- Plant Loop Demand Calculation Scheme
  ,                                       !- Common Pipe Simulation
  ;                                       !- Pressure Simulation Type

OS:Sizing:Plant,
  {c2b66e9a-f210-4cae-a005-e5ad671a48e2}, !- Handle
  {eaa48519-f424-4b45-bff1-f17f59d50746}, !- Plant or Condenser Loop Name
  Cooling,                                !- Loop Type
  7.22,                                   !- Design Loop Exit Temperature {C}
  6.67,                                   !- Loop Design Temperature Difference {deltaC}
  NonCoincident,                          !- Sizing Option
  1,                                      !- Zone Timesteps in Averaging Window
  None;                                   !- Coincident Sizing Factor Mode

OS:Node,
  {8e079258-f141-4187-91ce-8552b2f133f9}, !- Handle
  Node 11,                                !- Name
  {da99ace1-072c-4023-910f-0987691c9751}, !- Inlet Port
  {7a360c7a-1f29-4084-be5b-32ed76e3d3a6}; !- Outlet Port

OS:Node,
  {85186040-27e3-4342-a2c6-e844decba4bf}, !- Handle
  Node 12,                                !- Name
  {c2342f56-a5db-47be-9f42-2d5a6283d85e}, !- Inlet Port
  {c8948dc7-e12b-4606-ae6f-78e01f5074d8}; !- Outlet Port

OS:Node,
  {fb09b236-5fb1-4a3f-a7d3-5f7f283cf24e}, !- Handle
  Node 13,                                !- Name
  {b6994089-a592-445b-8830-399bd8745df5}, !- Inlet Port
  {fab27b8e-92da-4269-b78d-d6b2051b493c}; !- Outlet Port

OS:Connector:Mixer,
  {d5780cc0-3ef1-401d-84b6-92f13ddddcd2}, !- Handle
  Connector Mixer 1,                      !- Name
  {451a2fbb-fb5b-4f93-bd4d-953ee7618da4}, !- Outlet Branch Name
  {24dc3c3a-c802-4b49-8018-e766b2e24e37}, !- Inlet Branch Name 1
  {8195042a-d4fd-4d79-a4b3-615ea4edd888}; !- Inlet Branch Name 2

OS:Connector:Splitter,
  {2497e2a0-d890-4418-b42f-287bf5bba8d3}, !- Handle
  Connector Splitter 1,                   !- Name
  {1a3fd0f7-139d-4bb3-973c-d19ef41fe210}, !- Inlet Branch Name
  {b6994089-a592-445b-8830-399bd8745df5}, !- Outlet Branch Name 1
  {3386cf44-56cd-47f4-a2ee-caab6b9bb823}; !- Outlet Branch Name 2

OS:Connection,
  {da99ace1-072c-4023-910f-0987691c9751}, !- Handle
  {31a8d598-4dac-4ea9-a809-fb99e7ea151d}, !- Name
  {eaa48519-f424-4b45-bff1-f17f59d50746}, !- Source Object
  13,                                     !- Outlet Port
  {8e079258-f141-4187-91ce-8552b2f133f9}, !- Target Object
  2;                                      !- Inlet Port

OS:Connection,
  {b6994089-a592-445b-8830-399bd8745df5}, !- Handle
  {ce795e00-6b90-428b-843e-a61201d8109c}, !- Name
  {2497e2a0-d890-4418-b42f-287bf5bba8d3}, !- Source Object
  3,                                      !- Outlet Port
  {fb09b236-5fb1-4a3f-a7d3-5f7f283cf24e}, !- Target Object
  2;                                      !- Inlet Port

OS:Connection,
  {c8948dc7-e12b-4606-ae6f-78e01f5074d8}, !- Handle
  {c3e36d1d-7521-4f27-a1eb-f057b053f1b6}, !- Name
  {85186040-27e3-4342-a2c6-e844decba4bf}, !- Source Object
  3,                                      !- Outlet Port
  {eaa48519-f424-4b45-bff1-f17f59d50746}, !- Target Object
  14;                                     !- Inlet Port

OS:Node,
  {8b1b5108-09c7-46de-8eff-682970692bd5}, !- Handle
  Node 14,                                !- Name
  {a0c1a6ec-2085-46bf-a270-a0a14f3a7c8c}, !- Inlet Port
  {0997e579-5de5-4970-b11e-2cf97d42fa18}; !- Outlet Port

OS:Node,
  {1cb2776a-2358-446e-8d13-80fe657978b8}, !- Handle
  Node 15,                                !- Name
  {5e997739-5f68-45fd-bb3b-070aab6eba1c}, !- Inlet Port
  {53ac0ef1-f8a2-4771-8509-036780e00689}; !- Outlet Port

OS:Node,
  {845da015-b613-4331-8bab-8759637c4730}, !- Handle
  Node 16,                                !- Name
  {9b5c222c-005e-44ef-ac50-689739db9bba}, !- Inlet Port
  {c926eae3-5257-4750-87c0-652b512f24ee}; !- Outlet Port

OS:Connector:Mixer,
  {25d36499-bf21-4594-98f6-fb3e55f83381}, !- Handle
  Connector Mixer 2,                      !- Name
  {5e997739-5f68-45fd-bb3b-070aab6eba1c}, !- Outlet Branch Name
  {6c5086a3-b51a-4ec1-a623-2a8117267e58}; !- Inlet Branch Name 1

OS:Connector:Splitter,
  {30bad953-1031-40ae-8ae1-8d4e2e436f95}, !- Handle
  Connector Splitter 2,                   !- Name
  {0997e579-5de5-4970-b11e-2cf97d42fa18}, !- Inlet Branch Name
  {9b5c222c-005e-44ef-ac50-689739db9bba}; !- Outlet Branch Name 1

OS:Connection,
  {a0c1a6ec-2085-46bf-a270-a0a14f3a7c8c}, !- Handle
  {9dd25eeb-57a5-4bcb-9f45-32858fa91a64}, !- Name
  {eaa48519-f424-4b45-bff1-f17f59d50746}, !- Source Object
  16,                                     !- Outlet Port
  {8b1b5108-09c7-46de-8eff-682970692bd5}, !- Target Object
  2;                                      !- Inlet Port

OS:Connection,
  {0997e579-5de5-4970-b11e-2cf97d42fa18}, !- Handle
  {5ec44fac-22d9-4423-a526-9cde96b0cbe1}, !- Name
  {8b1b5108-09c7-46de-8eff-682970692bd5}, !- Source Object
  3,                                      !- Outlet Port
  {30bad953-1031-40ae-8ae1-8d4e2e436f95}, !- Target Object
  2;                                      !- Inlet Port

OS:Connection,
  {9b5c222c-005e-44ef-ac50-689739db9bba}, !- Handle
  {1dcd9eea-d5e1-4411-ab13-229ce50ab29d}, !- Name
  {30bad953-1031-40ae-8ae1-8d4e2e436f95}, !- Source Object
  3,                                      !- Outlet Port
  {845da015-b613-4331-8bab-8759637c4730}, !- Target Object
  2;                                      !- Inlet Port

OS:Connection,
  {5e997739-5f68-45fd-bb3b-070aab6eba1c}, !- Handle
  {eb933946-7c6d-4a44-b109-c9427bfba397}, !- Name
  {25d36499-bf21-4594-98f6-fb3e55f83381}, !- Source Object