
OS:Version,
  {bae0962b-b1a0-4367-b0a1-6e9602f8faa4}, !- Handle
  2.0.4;                                  !- Version Identifier

OS:Site,
  {d6190f5c-b440-4d8f-8455-e3ab29f5fcb0}, !- Handle
  TAIPEI,                                 !- Name
  25.07,                                  !- Latitude {deg}
  121.55,                                 !- Longitude {deg}
  8,                                      !- Time Zone {hr}
  6,                                      !- Elevation {m}
  ;                                       !- Terrain

OS:SimulationControl,
  {43b1eecd-3be7-40c8-9990-b63115733125}, !- Handle
  Yes,                                    !- Do Zone Sizing Calculation
  No,                                     !- Do System Sizing Calculation
  No,                                     !- Do Plant Sizing Calculation
  Yes,                                    !- Run Simulation for Sizing Periods
  Yes,                                    !- Run Simulation for Weather File Run Periods
  ,                                       !- Loads Convergence Tolerance Value
  ,                                       !- Temperature Convergence Tolerance Value {deltaC}
  ;                                       !- Solar Distribution

OS:Schedule:Day,
  {cd7cec66-141f-4b38-924a-e98e43cbc8f0}, !- Handle
  Large Office HtgSetp Summer Design Day, !- Name
  {07c4f9b8-31ae-4faf-8de4-4cb267309176}, !- Schedule Type Limits Name
  ,                                       !- Interpolate to Timestep
  24,                                     !- Hour 1
  0,                                      !- Minute 1
  15.6;                                   !- Value Until Time 1

OS:ScheduleTypeLimits,
  {07c4f9b8-31ae-4faf-8de4-4cb267309176}, !- Handle
  Temperature 3,                          !- Name
  ,                                       !- Lower Limit Value
  ,                                       !- Upper Limit Value
  Continuous,                             !- Numeric Type
  temperature;                            !- Unit Type

OS:Surface,
  {16565c77-c1ad-49bf-beb4-05d2f6309264}, !- Handle
  Surface 2,                              !- Name
  Wall,                                   !- Surface Type
  {6af1af8e-3df5-42c9-967c-185ce09abedf}, !- Construction Name
  {81f9cac5-85a7-48e2-9925-5113275e290b}, !- Space Name
  Outdoors,                               !- Outside Boundary Condition
  ,                                       !- Outside Boundary Condition Object
  SunExposed,                             !- Sun Exposure
  WindExposed,                            !- Wind Exposure
  ,                                       !- View Factor to Ground
  ,                                       !- Number of Vertices
  0, 7.65, 2.35,                          !- X,Y,Z Vertex 1 {m}
  0, 7.65, 0,                             !- X,Y,Z Vertex 2 {m}
  0, 0, 0,                                !- X,Y,Z Vertex 3 {m}
  0, 0, 2.35;                             !- X,Y,Z Vertex 4 {m}

OS:Construction,
  {6af1af8e-3df5-42c9-967c-185ce09abedf}, !- Handle
  ASHRAE 189.1-2009 ExtWall Mass ClimateZone 1, !- Name
  {67925210-12c9-4fcf-8d77-ec4250a52ed1}, !- Surface Rendering Name
  {18e21098-74c8-43dd-80b2-6f0221a0d122}, !- Layer 1
  {6d0f4b6a-6860-4e5a-ad9a-e12bb52e0269}, !- Layer 2
  {7931b4a7-b2ce-45d1-9db0-c5b8f730905c}, !- Layer 3
  {c670fe7d-efbb-45fc-9a66-b023d4904ccb}; !- Layer 4

OS:Material,
  {18e21098-74c8-43dd-80b2-6f0221a0d122}, !- Handle
  1IN Stucco,                             !- Name
  Smooth,                                 !- Roughness
  0.0253,                                 !- Thickness {m}
  0.691799999999999,                      !- Conductivity {W/m-K}
  1858,                                   !- Density {kg/m3}
  836.999999999999,                       !- Specific Heat {J/kg-K}
  0.9,                                    !- Thermal Absorptance
  0.92,                                   !- Solar Absorptance
  0.92;                                   !- Visible Absorptance

OS:Material,
  {6d0f4b6a-6860-4e5a-ad9a-e12bb52e0269}, !- Handle
  8IN Concrete HW,                        !- Name
  MediumRough,                            !- Roughness
  0.2033,                                 !- Thickness {m}
  1.72959999999999,                       !- Conductivity {W/m-K}
  2242.99999999999,                       !- Density {kg/m3}
  836.999999999999,                       !- Specific Heat {J/kg-K}
  0.9,                                    !- Thermal Absorptance
  0.65,                                   !- Solar Absorptance
  0.65;                                   !- Visible Absorptance

OS:Material,
  {7931b4a7-b2ce-45d1-9db0-c5b8f730905c}, !- Handle
  Wall Insulation [31],                   !- Name
  MediumRough,                            !- Roughness
  0.0337000000000001,                     !- Thickness {m}
  0.0432,                                 !- Conductivity {W/m-K}
  91,                                     !- Density {kg/m3}
  836.999999999999,                       !- Specific Heat {J/kg-K}
  0.9,                                    !- Thermal Absorptance
  0.5,                                    !- Solar Absorptance
  0.5;                                    !- Visible Absorptance

OS:Material,
  {c670fe7d-efbb-45fc-9a66-b023d4904ccb}, !- Handle
  1/2IN Gypsum,                           !- Name
  Smooth,                                 !- Roughness
  0.0127,                                 !- Thickness {m}
  0.16,                                   !- Conductivity {W/m-K}
  784.9,                                  !- Density {kg/m3}
  830.000000000001,                       !- Specific Heat {J/kg-K}
  0.9,                                    !- Thermal Absorptance
  0.4,                                    !- Solar Absorptance
  0.4;                                    !- Visible Absorptance

OS:ThermalZone,
  {de656d8a-d618-4643-baa4-776301a5aef3}, !- Handle
  Thermal Zone 9 Thermal Zone,            !- Name
  ,                                       !- Multiplier
  ,                                       !- Ceiling Height {m}
  ,                                       !- Volume {m3}
  ,                                       !- Floor Area {m2}
  ,                                       !- Zone Inside Convection Algorithm
  ,                                       !- Zone Outside Convection Algorithm
  ,                                       !- Zone Conditioning Equipment List Name
  {a8d1f9d3-66d0-4aef-b5d5-35f32d3b96af}, !- Zone Air Inlet Port List
  {0b16414e-acb0-4112-95cd-d54cd61c233d}, !- Zone Air Exhaust Port List
  {b6905af1-1109-46bd-be17-bbe786e93e0b}, !- Zone Air Node Name
  ,                                       !- Zone Return Air Node Name
  ,                                       !- Primary Daylighting Control Name
  ,                                       !- Fraction of Zone Controlled by Primary Daylighting Control
  ,                                       !- Secondary Daylighting Control Name
  ,                                       !- Fraction of Zone Controlled by Secondary Daylighting Control
  ,                                       !- Illuminance Map Name
  {1a222e38-4af4-4da4-bbe4-ab218ca59fa1}, !- Group Rendering Name
  ,                                       !- Thermostat Name
  No;                                     !- Use Ideal Air Loads

OS:Node,
  {09b67998-d490-4fa9-beda-76b44f7f1b22}, !- Handle
  {da11059f-9f3a-4cc1-831a-6e64e44b77d3}, !- Name
  {b6905af1-1109-46bd-be17-bbe786e93e0b}, !- Inlet Port
  ;                                       !- Outlet Port

OS:Connection,
  {b6905af1-1109-46bd-be17-bbe786e93e0b}, !- Handle
  {8eb0fba7-0bba-4871-8aaa-8497d859c42d}, !- Name
  {de656d8a-d618-4643-baa4-776301a5aef3}, !- Source Object
  11,                                     !- Outlet Port
  {09b67998-d490-4fa9-beda-76b44f7f1b22}, !- Target Object
  2;                                      !- Inlet Port

OS:PortList,
  {a8d1f9d3-66d0-4aef-b5d5-35f32d3b96af}, !- Handle
  {c08a00fc-a193-49ca-b8ce-1c6964fc9d14}, !- Name
  {de656d8a-d618-4643-baa4-776301a5aef3}; !- HVAC Component

OS:PortList,
  {0b16414e-acb0-4112-95cd-d54cd61c233d}, !- Handle
  {15ef6690-b419-4ade-93f6-64854b34b3d7}, !- Name
  {de656d8a-d618-4643-baa4-776301a5aef3}; !- HVAC Component

OS:Sizing:Zone,
  {93f73142-3811-4227-a5f4-94da88fe10e9}, !- Handle
  {de656d8a-d618-4643-baa4-776301a5aef3}, !- Zone or ZoneList Name
  SupplyAirTemperature,                   !- Zone Cooling Design Supply Air Temperature Input Method
  14,                                     !- Zone Cooling Design Supply Air Temperature {C}
  11.11,                                  !- Zone Cooling Design Supply Air Temperature Difference {deltaC}
  SupplyAirTemperature,                   !- Zone Heating Design Supply Air Temperature Input Method
  40,                                     !- Zone Heating Design Supply Air Temperature {C}
  11.11,                                  !- Zone Heating Design Supply Air Temperature Difference {deltaC}
  0.0085,                                 !- Zone Cooling Design Supply Air Humidity Ratio {kg-H2O/kg-air}
  0.008,                                  !- Zone Heating Design Supply Air Humidity Ratio {kg-H2O/kg-air}
  ,                                       !- Zone Heating Sizing Factor
  ,                                       !- Zone Cooling Sizing Factor
  DesignDay,                              !- Cooling Design Air Flow Method
  ,                                       !- Cooling Design Air Flow Rate {m3/s}
  ,                                       !- Cooling Minimum Air Flow per Zone Floor Area {m3/s-m2}
  ,                                       !- Cooling Minimum Air Flow {m3/s}
  ,                                       !- Cooling Minimum Air Flow Fraction
  DesignDay,                              !- Heating Design Air Flow Method
  ,                                       !- Heating Design Air Flow Rate {m3/s}
  ,                                       !- Heating Maximum Air Flow per Zone Floor Area {m3/s-m2}
  ,                                       !- Heating Maximum Air Flow {m3/s}
  ,                                       !- Heating Maximum Air Flow Fraction
  ,                                       !- Design Zone Air Distribution Effectiveness in Cooling Mode
  ,                                       !- Design Zone Air Distribution Effectiveness in Heating Mode
  No,                                     !- Account for Dedicated Outdoor Air System
  NeutralSupplyAir,                       !- Dedicated Outdoor Air System Control Strategy
  autosize,                               !- Dedicated Outdoor Air Low Setpoint Temperature for Design {C}
  autosize;                               !- Dedicated Outdoor Air High Setpoint Temperature for Design {C}

OS:ZoneHVAC:EquipmentList,
  {8fb3c942-f436-4cfc-a31c-1b8abf50a569}, !- Handle
  {478c2c35-b1ae-4b9e-91d7-e9cdccd9278b}, !- Name
  {de656d8a-d618-4643-baa4-776301a5aef3}; !- Thermal Zone

OS:Space,
  {81f9cac5-85a7-48e2-9925-5113275e290b}, !- Handle
  Thermal Zone 9,                         !- Name
  {2195fea4-05ed-4ded-ab6e-7acbd87537a9}, !- Space Type Name
  {57acc4e0-1f31-4c7e-af68-c216392bd1d5}, !- Default Construction Set Name
  {9682e847-bb20-4300-a1c1-3a48b3ae3db0}, !- Default Schedule Set Name
  ,                                       !- Direction of Relative North {deg}
  0,                                      !- X Origin {m}
  0,                                      !- Y Origin {m}
  0,                                      !- Z Origin {m}
  ,                                       !- Building Story Name
  {de656d8a-d618-4643-baa4-776301a5aef3}, !- Thermal Zone Name
  ,                                       !- Part of Total Floor Area
  ,                                       !- Design Specification Outdoor Air Object Name
  ;                                       !- Building Unit Name

OS:Construction,
  {14f47c29-345d-4764-9902-5229e603f96d}, !- Handle
  ASHRAE 189.1-2009 ExtWindow ClimateZone 4-5, !- Name
  {dcf0b0a0-8a52-4e9a-8255-1e50fe649ec9}, !- Surface Rendering Name
  {18e61e85-7526-4f1c-a2b0-aac1618b2939}; !- Layer 1

OS:WindowMaterial:Glazing,
  {18e61e85-7526-4f1c-a2b0-aac1618b2939}, !- Handle
  Theoretical Glass [207],                !- Name
  SpectralAverage,                        !- Optical Data Type
  ,                                       !- Window Glass Spectral Data Set Name
  0.00299999999999999,                    !- Thickness {m}
  0.3311,                                 !- Solar Transmittance at Normal Incidence
  0.6189,                                 !- Front Side Solar Reflectance at Normal Incidence
  0,                                      !- Back Side Solar Reflectance at Normal Incidence
  0.44,                                   !- Visible Transmittance at Normal Incidence
  0.51,                                   !- Front Side Visible Reflectance at Normal Incidence
  0,                                      !- Back Side Visible Reflectance at Normal Incidence
  0,                                      !- Infrared Transmittance at Normal Incidence
  0.9,                                    !- Front Side Infrared Hemispherical Emissivity
  0.9,                                    !- Back Side Infrared Hemispherical Emissivity
  0.0133,                                 !- Conductivity {W/m-K}
  1,                                      !- Dirt Correction Factor for Solar and Visible Transmittance
  No;                                     !- Solar Diffusing

OS:Surface,
  {7e008edf-2400-4c61-8fd2-36050ef5a35c}, !- Handle
  Surface 40,                             !- Name
  Wall,                                   !- Surface Type
  {b96779e3-6fab-4b8e-af0b-d8700ba6ea9d}, !- Construction Name
  {1218f4cd-5600-44ab-8ddb-f893771f4de2}, !- Space Name
  Surface,                                !- Outside Boundary Condition
  {c9dd99e2-0381-41ad-85d4-d9817a9bab63}, !- Outside Boundary Condition Object
  NoSun,                                  !- Sun Exposure
  NoWind,                                 !- Wind Exposure
  ,                                       !- View Factor to Ground
  ,                                       !- Number of Vertices
  3.5, 0, 2.35,                           !- X,Y,Z Vertex 1 {m}
  3.5, 0, 0,                              !- X,Y,Z Vertex 2 {m}
  3.5, 7.65, 0,                           !- X,Y,Z Vertex 3 {m}
  3.5, 7.65, 2.35;                        !- X,Y,Z Vertex 4 {m}

OS:Construction,
  {b96779e3-6fab-4b8e-af0b-d8700ba6ea9d}, !- Handle
  Interior Wall,                          !- Name
  {6e11a9b1-bf74-42ff-856a-a36a5eaacc43}, !- Surface Rendering Name
  {c04a03c6-a0d7-4243-89c4-7b602229955f}, !- Layer 1
  {4d5ed1d0-a635-4869-8519-ee12bbe4b248}, !- Layer 2
  {c04a03c6-a0d7-4243-89c4-7b602229955f}; !- Layer 3

OS:Material,
  {c04a03c6-a0d7-4243-89c4-7b602229955f}, !- Handle
  G01a 19mm gypsum board,                 !- Name
  MediumSmooth,                           !- Roughness
  0.019,                                  !- Thickness {m}
  0.16,                                   !- Conductivity {W/m-K}
  800,                                    !- Density {kg/m3}
  1090,                                   !- Specific Heat {J/kg-K}
  0.9,                                    !- Thermal Absorptance
  0.4,                                    !- Solar Absorptance
  0.4;                                    !- Visible Absorptance

OS:Material:AirGap,
  {4d5ed1d0-a635-4869-8519-ee12bbe4b248}, !- Handle
  F04 Wall air space resistance,          !- Name
  0.15;                                   !- Thermal Resistance {m2-K/W}

OS:ThermalZone,
  {049cf42e-34d1-4872-86fc-88fc82b736ee}, !- Handle
  Thermal Zone 2 Thermal Zone,            !- Name
  ,                                       !- Multiplier
  ,                                       !- Ceiling Height {m}
  ,                                       !- Volume {m3}
  ,                                       !- Floor Area {m2}
  ,                                       !- Zone Inside Convection Algorithm
  ,                                       !- Zone Outside Convection Algorithm
  ,                                       !- Zone Conditioning Equipment List Name
  {e6d1d346-3222-46c5-91fd-70b20019c762}, !- Zone Air Inlet Port List
  {ca9d161c-3244-4197-8375-091e40c4e293}, !- Zone Air Exhaust Port List
  {546b9e3f-552a-4875-bb9d-656f67777a6c}, !- Zone Air Node Name
  ,                                       !- Zone Return Air Node Name
  ,                                       !- Primary Daylighting Control Name
  ,                                       !- Fraction of Zone Controlled by Primary Daylighting Control
  ,                                       !- Secondary Daylighting Control Name
  ,                                       !- Fraction of Zone Controlled by Secondary Daylighting Control
  ,                                       !- Illuminance Map Name
  {bf086d13-049f-44f8-be68-d3e0c88e1854}, !- Group Rendering Name
  ,                                       !- Thermostat Name
  No,                                     !- Use Ideal Air Loads
  ;                                       !- Humidistat Name

OS:Node,
  {e97908b2-e519-4094-9723-618c4881e6ea}, !- Handle
  {889b2988-41c8-4cb8-98db-39eccf11364c}, !- Name
  {546b9e3f-552a-4875-bb9d-656f67777a6c}, !- Inlet Port
  ;                                       !- Outlet Port

OS:Connection,
  {546b9e3f-552a-4875-bb9d-656f67777a6c}, !- Handle
  {fdb10166-d9cd-4973-80be-7b08446387d6}, !- Name
  {049cf42e-34d1-4872-86fc-88fc82b736ee}, !- Source Object
  11,                                     !- Outlet Port
  {e97908b2-e519-4094-9723-618c4881e6ea}, !- Target Object
  2;                                      !- Inlet Port

OS:PortList,
  {e6d1d346-3222-46c5-91fd-70b20019c762}, !- Handle
  {b630aed9-9e5c-4fd4-8784-5bfab0b10940}, !- Name
  {049cf42e-34d1-4872-86fc-88fc82b736ee}; !- HVAC Component

OS:PortList,
  {ca9d161c-3244-4197-8375-091e40c4e293}, !- Handle
  {2e276d4b-7c8b-498f-b7a9-4f39303a5675}, !- Name
  {049cf42e-34d1-4872-86fc-88fc82b736ee}; !- HVAC Component

OS:Sizing:Zone,
  {070d40f5-bb6c-4bef-bb61-8ae9e958713f}, !- Handle
  {049cf42e-34d1-4872-86fc-88fc82b736ee}, !- Zone or ZoneList Name
  SupplyAirTemperature,                   !- Zone Cooling Design Supply Air Temperature Input Method
  14,                                     !- Zone Cooling Design Supply Air Temperature {C}
  11.11,                                  !- Zone Cooling Design Supply Air Temperature Difference {deltaC}
  SupplyAirTemperature,                   !- Zone Heating Design Supply Air Temperature Input Method
  40,                                     !- Zone Heating Design Supply Air Temperature {C}
  11.11,                                  !- Zone Heating Design Supply Air Temperature Difference {deltaC}
  0.0085,                                 !- Zone Cooling Design Supply Air Humidity Ratio {kg-H2O/kg-air}
  0.008,                                  !- Zone Heating Design Supply Air Humidity Ratio {kg-H2O/kg-air}
  ,                                       !- Zone Heating Sizing Factor
  ,                                       !- Zone Cooling Sizing Factor
  DesignDay,                              !- Cooling Design Air Flow Method
  ,                                       !- Cooling Design Air Flow Rate {m3/s}
  ,                                       !- Cooling Minimum Air Flow per Zone Floor Area {m3/s-m2}
  ,                                       !- Cooling Minimum Air Flow {m3/s}
  ,                                       !- Cooling Minimum Air Flow Fraction
  DesignDay,                              !- Heating Design Air Flow Method
  ,                                       !- Heating Design Air Flow Rate {m3/s}
  ,                                       !- Heating Maximum Air Flow per Zone Floor Area {m3/s-m2}
  ,                                       !- Heating Maximum Air Flow {m3/s}
  ,                                       !- Heating Maximum Air Flow Fraction
  ,                                       !- Design Zone Air Distribution Effectiveness in Cooling Mode
  ,                                       !- Design Zone Air Distribution Effectiveness in Heating Mode
  No,                                     !- Account for Dedicated Outdoor Air System
  NeutralSupplyAir,                       !- Dedicated Outdoor Air System Control Strategy
  autosize,                               !- Dedicated Outdoor Air Low Setpoint Temperature for Design {C}
  autosize;                               !- Dedicated Outdoor Air High Setpoint Temperature for Design {C}

OS:ZoneHVAC:EquipmentList,
  {bd98a4c0-4fc5-489d-b67f-811f2ac1aefb}, !- Handle
  {31dba0a1-072b-44c0-a96a-38dc057dc433}, !- Name
  {049cf42e-34d1-4872-86fc-88fc82b736ee}; !- Thermal Zone

OS:Space,
  {1218f4cd-5600-44ab-8ddb-f893771f4de2}, !- Handle
  Thermal Zone 2,                         !- Name
  {2195fea4-05ed-4ded-ab6e-7acbd87537a9}, !- Space Type Name
  {57acc4e0-1f31-4c7e-af68-c216392bd1d5}, !- Default Construction Set Name
  {f1c2ab3c-3d45-47c5-b89c-bb3ee2de2b5d}, !- Default Schedule Set Name
  -0,                                     !- Direction of Relative North {deg}
  0,                                      !- X Origin {m}
  0,                                      !- Y Origin {m}
  4.7,                                    !- Z Origin {m}
  ,                                       !- Building Story Name
  {049cf42e-34d1-4872-86fc-88fc82b736ee}, !- Thermal Zone Name
  ,                                       !- Part of Total Floor Area
  ,                                       !- Design Specification Outdoor Air Object Name
  ;                                       !- Building Unit Name

OS:Material,
  {39c56ac6-dd33-4210-a7d8-03a0c33f31c5}, !- Handle
  Air Wall Material,                      !- Name
  MediumSmooth,                           !- Roughness
  0.01,                                   !- Thickness {m}
  0.6,                                    !- Conductivity {W/m-K}
  800,                                    !- Density {kg/m3}
  1000,                                   !- Specific Heat {J/kg-K}
  0.95,                                   !- Thermal Absorptance
  0.7,                                    !- Solar Absorptance
  0.7;                                    !- Visible Absorptance

OS:Construction,
  {932864fc-564d-4faf-8b1f-1cef5e6b94f1}, !- Handle
  ASHRAE 189.1-2009 ExtWall Mass ClimateZone 5, !- Name
  {6af8d30b-1966-4975-82d7-50dfa98d587c}, !- Surface Rendering Name
  {18e21098-74c8-43dd-80b2-6f0221a0d122}, !- Layer 1
  {6d0f4b6a-6860-4e5a-ad9a-e12bb52e0269}, !- Layer 2
  {019744ee-5923-4187-b2e0-fafbc3312617}, !- Layer 3
  {c670fe7d-efbb-45fc-9a66-b023d4904ccb}; !- Layer 4

OS:Material,
  {019744ee-5923-4187-b2e0-fafbc3312617}, !- Handle
  Wall Insulation [40],                   !- Name
  MediumRough,                            !- Roughness
  0.0793999999999999,                     !- Thickness {m}
  0.0432,                                 !- Conductivity {W/m-K}
  91,                                     !- Density {kg/m3}
  836.999999999999,                       !- Specific Heat {J/kg-K}
  0.9,                                    !- Thermal Absorptance
  0.5,                                    !- Solar Absorptance
  0.5;                                    !- Visible Absorptance

OS:SizingPeriod:DesignDay,
  {49aff7a6-0241-4dd7-9edb-600191568b9b}, !- Handle
  TAIPEI Ann Htg Wind 99.6% Condns WS=>MCDB, !- Name
  17.3,                                   !- Maximum Dry-Bulb Temperature {C}
  0,                                      !- Daily Dry-Bulb Temperature Range {deltaC}
  17.3,                                   !- Humidity Indicating Conditions at Maximum Dry-Bulb
  101253,                                 !- Barometric Pressure {Pa}
  9,                                      !- Wind Speed {m/s}
  90,                                     !- Wind Direction {deg}
  0,                                      !- Sky Clearness
  0,                                      !- Rain Indicator
  0,                                      !- Snow Indicator
  21,                                     !- Day of Month
  1,                                      !- Month
  WinterDesignDay,                        !- Day Type
  0,                                      !- Daylight Saving Time Indicator
  Wetbulb,                                !- Humidity Indicating Type
  ,                                       !- Humidity Indicating Day Schedule Name
  DefaultMultipliers,                     !- Dry-Bulb Temperature Range Modifier Type
  ,                                       !- Dry-Bulb Temperature Range Modifier Schedule Name
  ASHRAEClearSky;                         !- Solar Model Indicator

OS:ScheduleTypeLimits,
  {57d698ea-3c94-46a0-8111-b8508f422e13}, !- Handle
  ActivityLevel,                          !- Name
  0,                                      !- Lower Limit Value
  ,                                       !- Upper Limit Value
  Continuous,                             !- Numeric Type
  activitylevel;                          !- Unit Type

OS:Surface,
  {ab532874-6153-4c6f-8623-3a345faa514d}, !- Handle
  Surface 8,                              !- Name
  Wall,                                   !- Surface Type
  {932864fc-564d-4faf-8b1f-1cef5e6b94f1}, !- Construction Name
  {a7afcbcd-fcaa-4062-9b13-fb50806489a1}, !- Space Name
  Outdoors,                               !- Outside Boundary Condition
  ,                                       !- Outside Boundary Condition Object
  SunExposed,                             !- Sun Exposure
  WindExposed,                            !- Wind Exposure
  ,                                       !- View Factor to Ground
  ,                                       !- Number of Vertices
  0, 7.65, 2.35,                          !- X,Y,Z Vertex 1 {m}
  0, 7.65, 0,                             !- X,Y,Z Vertex 2 {m}
  0, 0, 0,                                !- X,Y,Z Vertex 3 {m}
  0, 0, 2.35;                             !- X,Y,Z Vertex 4 {m}

OS:ThermalZone,
  {f7b51956-0d9a-4280-abc2-c49de9c079ce}, !- Handle
  Thermal Zone 6 Thermal Zone,            !- Name
  ,                                       !- Multiplier
  ,                                       !- Ceiling Height {m}
  ,                                       !- Volume {m3}
  ,                                       !- Floor Area {m2}
  ,                                       !- Zone Inside Convection Algorithm
  ,                                       !- Zone Outside Convection Algorithm
  ,                                       !- Zone Conditioning Equipment List Name
  {3ad39c73-982a-4f06-9831-d20a9482962d}, !- Zone Air Inlet Port List
  {c0aed4b3-70f2-4d2f-9506-60e992c96715}, !- Zone Air Exhaust Port List
  {8051def2-3a7e-4d8e-8ea7-587d356e48c2}, !- Zone Air Node Name
  ,                                       !- Zone Return Air Node Name
  ,                                       !- Primary Daylighting Control Name
  ,                                       !- Fraction of Zone Controlled by Primary Daylighting Control
  ,                                       !- Secondary Daylighting Control Name
  ,                                       !- Fraction of Zone Controlled by Secondary Daylighting Control
  ,                                       !- Illuminance Map Name
  {5eb282cd-64c0-47aa-8923-684bf0e8d467}, !- Group Rendering Name
  ,                                       !- Thermostat Name
  No;                                     !- Use Ideal Air Loads

OS:Node,
  {443ed814-452a-469d-aba2-68b7f207d604}, !- Handle
  {f1030428-e41a-411e-93d2-8abbc494cd4b}, !- Name
  {8051def2-3a7e-4d8e-8ea7-587d356e48c2}, !- Inlet Port
  ;                                       !- Outlet Port

OS:Connection,
  {8051def2-3a7e-4d8e-8ea7-587d356e48c2}, !- Handle
  {3a884b2c-7b25-4588-9bb8-daf2ebfa060d}, !- Name
  {f7b51956-0d9a-4280-abc2-c49de9c079ce}, !- Source Object
  11,                                     !- Outlet Port
  {443ed814-452a-469d-aba2-68b7f207d604}, !- Target Object
  2;                                      !- Inlet Port

OS:PortList,
  {3ad39c73-982a-4f06-9831-d20a9482962d}, !- Handle
  {dc92400a-e30e-4461-9a4e-91b5b27cd469}, !- Name
  {f7b51956-0d9a-4280-abc2-c49de9c079ce}; !- HVAC Component

OS:PortList,
  {c0aed4b3-70f2-4d2f-9506-60e992c96715}, !- Handle
  {35c7de9b-69ab-4427-85a0-3fad03b8748e}, !- Name
  {f7b51956-0d9a-4280-abc2-c49de9c079ce}; !- HVAC Component

OS:Sizing:Zone,
  {b7212e4c-81e5-49e9-b2eb-b7192a5d9ac1}, !- Handle
  {f7b51956-0d9a-4280-abc2-c49de9c079ce}, !- Zone or ZoneList Name
  SupplyAirTemperature,                   !- Zone Cooling Design Supply Air Temperature Input Method
  14,                                     !- Zone Cooling Design Supply Air Temperature {C}
  11.11,                                  !- Zone Cooling Design Supply Air Temperature Difference {deltaC}
  SupplyAirTemperature,                   !- Zone Heating Design Supply Air Temperature Input Method
  40,                                     !- Zone Heating Design Supply Air Temperature {C}
  11.11,                                  !- Zone Heating Design Supply Air Temperature Difference {deltaC}
  0.0085,                                 !- Zone Cooling Design Supply Air Humidity Ratio {kg-H2O/kg-air}
  0.008,                                  !- Zone Heating Design Supply Air Humidity Ratio {kg-H2O/kg-air}
  ,                                       !- Zone Heating Sizing Factor
  ,                                       !- Zone Cooling Sizing Factor
  DesignDay,                              !- Cooling Design Air Flow Method
  ,                                       !- Cooling Design Air Flow Rate {m3/s}
  ,                                       !- Cooling Minimum Air Flow per Zone Floor Area {m3/s-m2}
  ,                                       !- Cooling Minimum Air Flow {m3/s}