
OS:Version,
  {78e10557-49a3-4756-ab49-0c6326e3bc72}, !- Handle
  2.0.4;                                  !- Version Identifier

OS:Site,
  {d7f88d55-2a77-49af-9c9a-8b34803fbff0}, !- Handle
  TAIPEI,                                 !- Name
  25.07,                                  !- Latitude {deg}
  121.55,                                 !- Longitude {deg}
  8,                                      !- Time Zone {hr}
  6,                                      !- Elevation {m}
  ;                                       !- Terrain

OS:SimulationControl,
  {81a57abc-d755-4384-8563-cb4c0596c453}, !- Handle
  Yes,                                    !- Do Zone Sizing Calculation
  Yes,                                    !- Do System Sizing Calculation
  No,                                     !- Do Plant Sizing Calculation
  Yes,                                    !- Run Simulation for Sizing Periods
  Yes,                                    !- Run Simulation for Weather File Run Periods
  ,                                       !- Loads Convergence Tolerance Value
  ,                                       !- Temperature Convergence Tolerance Value {deltaC}
  ;                                       !- Solar Distribution

OS:Schedule:Day,
  {e3b27333-34f4-42a0-9eef-6b09284f2790}, !- Handle
  Office Activity Summer Design Day 9,    !- Name
  {d3cb7e1a-d230-4ff4-a7c8-1b62465d8a15}, !- Schedule Type Limits Name
  ,                                       !- Interpolate to Timestep
  24,                                     !- Hour 1
  0,                                      !- Minute 1
  132;                                    !- Value Until Time 1

OS:ScheduleTypeLimits,
  {d3cb7e1a-d230-4ff4-a7c8-1b62465d8a15}, !- Handle
  ActivityLevel,                          !- Name
  0,                                      !- Lower Limit Value
  ,                                       !- Upper Limit Value
  Continuous,                             !- Numeric Type
  activitylevel;                          !- Unit Type

OS:Schedule:Day,
  {95270c87-9e69-4a3b-aa0e-cb9ffa49bd04}, !- Handle
  Office Bldg Light Winter Design Day 4,  !- Name
  {98e9dd64-3e5e-440f-85eb-b2f3768d696b}, !- Schedule Type Limits Name
  ,                                       !- Interpolate to Timestep
  24,                                     !- Hour 1
  0,                                      !- Minute 1
  0;                                      !- Value Until Time 1

OS:ScheduleTypeLimits,
  {98e9dd64-3e5e-440f-85eb-b2f3768d696b}, !- Handle
  Fraction,                               !- Name
  0,                                      !- Lower Limit Value
  1,                                      !- Upper Limit Value
  CONTINUOUS;                             !- Numeric Type

OS:Schedule:Day,
  {4bfb3981-7315-4b7a-ad44-f5a566ca03e0}, !- Handle
  Office Bldg Occ Rule 2 Day Schedule,    !- Name
  {98e9dd64-3e5e-440f-85eb-b2f3768d696b}, !- Schedule Type Limits Name
  ,                                       !- Interpolate to Timestep
  6,                                      !- Hour 1
  0,                                      !- Minute 1
  0,                                      !- Value Until Time 1
  8,                                      !- Hour 2
  0,                                      !- Minute 2
  0.100000001490116,                      !- Value Until Time 2
  14,                                     !- Hour 3
  0,                                      !- Minute 3
  0.400000005960464,                      !- Value Until Time 3
  17,                                     !- Hour 4
  0,                                      !- Minute 4
  0.100000001490116,                      !- Value Until Time 4
  24,                                     !- Hour 5
  0,                                      !- Minute 5
  0;                                      !- Value Until Time 5

OS:Schedule:Year,
  {853f54a9-0b2c-4644-b5f2-1f2e994b8a1c}, !- Handle
  Office Activity 8,                      !- Name
  {d3cb7e1a-d230-4ff4-a7c8-1b62465d8a15}, !- Schedule Type Limits Name
  12,                                     !- Month 1
  31,                                     !- Day 1
  {4d801e82-8ba2-4693-80e4-747ab7ccf18b}; !- Week Schedule Until Date 1

OS:Schedule:Week,
  {4d801e82-8ba2-4693-80e4-747ab7ccf18b}, !- Handle
  Schedule:Week:Daily {97c8e4ed-ce43-4610-993e-84dd8830f4df}, !- Name
  ,                                       !- Schedule Rendering Name
  {e42a4858-1672-48bf-a2c5-004daba860b7}, !- Sunday Schedule:Day Name
  {e42a4858-1672-48bf-a2c5-004daba860b7}, !- Monday Schedule:Day Name
  {e42a4858-1672-48bf-a2c5-004daba860b7}, !- Tuesday Schedule:Day Name
  {e42a4858-1672-48bf-a2c5-004daba860b7}, !- Wednesday Schedule:Day Name
  {e42a4858-1672-48bf-a2c5-004daba860b7}, !- Thursday Schedule:Day Name
  {e42a4858-1672-48bf-a2c5-004daba860b7}, !- Friday Schedule:Day Name
  {e42a4858-1672-48bf-a2c5-004daba860b7}, !- Saturday Schedule:Day Name
  {e42a4858-1672-48bf-a2c5-004daba860b7}, !- Holiday Schedule:Day Name
  {d06613fa-00b7-4320-8829-7fb7d593235c}, !- SummerDesignDay Schedule:Day Name
  {d849fec4-5447-494d-a9b9-924dd748dc21}, !- WinterDesignDay Schedule:Day Name
  {e42a4858-1672-48bf-a2c5-004daba860b7}, !- CustomDay1 Schedule:Day Name
  {e42a4858-1672-48bf-a2c5-004daba860b7}; !- CustomDay2 Schedule:Day Name

OS:Schedule:Day,
  {e42a4858-1672-48bf-a2c5-004daba860b7}, !- Handle
  Office Activity Default Schedule 8,     !- Name
  {d3cb7e1a-d230-4ff4-a7c8-1b62465d8a15}, !- Schedule Type Limits Name
  ,                                       !- Interpolate to Timestep
  24,                                     !- Hour 1
  0,                                      !- Minute 1
  132;                                    !- Value Until Time 1

OS:Schedule:Day,
  {d06613fa-00b7-4320-8829-7fb7d593235c}, !- Handle
  Office Activity Summer Design Day 8,    !- Name
  {d3cb7e1a-d230-4ff4-a7c8-1b62465d8a15}, !- Schedule Type Limits Name
  ,                                       !- Interpolate to Timestep
  24,                                     !- Hour 1
  0,                                      !- Minute 1
  132;                                    !- Value Until Time 1

OS:Schedule:Day,
  {d849fec4-5447-494d-a9b9-924dd748dc21}, !- Handle
  Office Activity Winter Design Day 8,    !- Name
  {d3cb7e1a-d230-4ff4-a7c8-1b62465d8a15}, !- Schedule Type Limits Name
  ,                                       !- Interpolate to Timestep
  24,                                     !- Hour 1
  0,                                      !- Minute 1
  132;                                    !- Value Until Time 1

OS:YearDescription,
  {50fb7594-1b0f-409d-9e61-923f5db7fd2e}; !- Handle

OS:SpaceInfiltration:DesignFlowRate,
  {31da1988-df9a-4338-9ae4-a01fd002c52a}, !- Handle
  189.1-2009 - Office - IT_Room - CZ1-3 Infiltration 11, !- Name
  {d56d07fc-210f-4461-8d49-53d75f22fb65}, !- Space or SpaceType Name
  {f8aae47b-7880-4216-9e77-e8a5dfbbeea6}, !- Schedule Name
  Flow/ExteriorArea,                      !- Design Flow Rate Calculation Method
  ,                                       !- Design Flow Rate {m3/s}
  ,                                       !- Flow per Space Floor Area {m3/s-m2}
  0.00030226,                             !- Flow per Exterior Surface Area {m3/s-m2}
  ,                                       !- Air Changes per Hour {1/hr}
  ,                                       !- Constant Term Coefficient
  ,                                       !- Temperature Term Coefficient
  ,                                       !- Velocity Term Coefficient
  ;                                       !- Velocity Squared Term Coefficient

OS:ThermalZone,
  {ec7473ad-99c4-4e52-8818-241621cfc86f}, !- Handle
  Thermal Zone 6 Thermal Zone Thermal Zone, !- Name
  ,                                       !- Multiplier
  ,                                       !- Ceiling Height {m}
  ,                                       !- Volume {m3}
  ,                                       !- Floor Area {m2}
  ,                                       !- Zone Inside Convection Algorithm
  ,                                       !- Zone Outside Convection Algorithm
  ,                                       !- Zone Conditioning Equipment List Name
  {41679934-3399-4856-bbb3-6159dc1519b5}, !- Zone Air Inlet Port List
  {f7c2527f-6737-439c-90b7-dc1abc9b5605}, !- Zone Air Exhaust Port List
  {51bfa724-dad6-4e1d-be45-8bfb444fd8a7}, !- Zone Air Node Name
  ,                                       !- Zone Return Air Node Name
  ,                                       !- Primary Daylighting Control Name
  ,                                       !- Fraction of Zone Controlled by Primary Daylighting Control
  ,                                       !- Secondary Daylighting Control Name
  ,                                       !- Fraction of Zone Controlled by Secondary Daylighting Control
  ,                                       !- Illuminance Map Name
  {8b5b82d1-c5e8-43cb-b79a-8c00bad70df0}, !- Group Rendering Name
  ,                                       !- Thermostat Name
  No;                                     !- Use Ideal Air Loads

OS:Node,
  {e31eaf2a-0bc5-4a6e-847c-4497443e6d20}, !- Handle
  {4796b5ae-9238-4321-a21e-a50f95da89dc}, !- Name
  {51bfa724-dad6-4e1d-be45-8bfb444fd8a7}, !- Inlet Port
  ;                                       !- Outlet Port

OS:Connection,
  {51bfa724-dad6-4e1d-be45-8bfb444fd8a7}, !- Handle
  {6a6152e6-3cde-44fd-8c9a-fee04fb84fd5}, !- Name
  {ec7473ad-99c4-4e52-8818-241621cfc86f}, !- Source Object
  11,                                     !- Outlet Port
  {e31eaf2a-0bc5-4a6e-847c-4497443e6d20}, !- Target Object
  2;                                      !- Inlet Port

OS:PortList,
  {41679934-3399-4856-bbb3-6159dc1519b5}, !- Handle
  {f0a4f20b-29bd-461c-9241-c2612382a2ad}, !- Name
  {ec7473ad-99c4-4e52-8818-241621cfc86f}; !- HVAC Component

OS:PortList,
  {f7c2527f-6737-439c-90b7-dc1abc9b5605}, !- Handle
  {7877c73d-8339-41bf-8ce9-c25c1c489086}, !- Name
  {ec7473ad-99c4-4e52-8818-241621cfc86f}; !- HVAC Component

OS:Sizing:Zone,
  {89e2cc30-40eb-4ca6-9e46-443c9722d423}, !- Handle
  {ec7473ad-99c4-4e52-8818-241621cfc86f}, !- Zone or ZoneList Name
  SupplyAirTemperature,                   !- Zone Cooling Design Supply Air Temperature Input Method
  14,                                     !- Zone Cooling Design Supply Air Temperature {C}
  11.11,                                  !- Zone Cooling Design Supply Air Temperature Difference {deltaC}
  SupplyAirTemperature,                   !- Zone Heating Design Supply Air Temperature Input Method
  40,                                     !- Zone Heating Design Supply Air Temperature {C}
  11.11,                                  !- Zone Heating Design Supply Air Temperature Difference {deltaC}
  0.0085,                                 !- Zone Cooling Design Supply Air Humidity Ratio {kg-H2O/kg-air}
  0.008,                                  !- Zone Heating Design Supply Air Humidity Ratio {kg-H2O/kg-air}
  ,                                       !- Zone Heating Sizing Factor
  ,                                       !- Zone Cooling Sizing Factor
  DesignDay,                              !- Cooling Design Air Flow Method
  ,                                       !- Cooling Design Air Flow Rate {m3/s}
  ,                                       !- Cooling Minimum Air Flow per Zone Floor Area {m3/s-m2}
  ,                                       !- Cooling Minimum Air Flow {m3/s}
  ,                                       !- Cooling Minimum Air Flow Fraction
  DesignDay,                              !- Heating Design Air Flow Method
  ,                                       !- Heating Design Air Flow Rate {m3/s}
  ,                                       !- Heating Maximum Air Flow per Zone Floor Area {m3/s-m2}
  ,                                       !- Heating Maximum Air Flow {m3/s}
  ,                                       !- Heating Maximum Air Flow Fraction
  ,                                       !- Design Zone Air Distribution Effectiveness in Cooling Mode
  ,                                       !- Design Zone Air Distribution Effectiveness in Heating Mode
  No,                                     !- Account for Dedicated Outdoor Air System
  NeutralSupplyAir,                       !- Dedicated Outdoor Air System Control Strategy
  autosize,                               !- Dedicated Outdoor Air Low Setpoint Temperature for Design {C}
  autosize;                               !- Dedicated Outdoor Air High Setpoint Temperature for Design {C}

OS:ZoneHVAC:EquipmentList,
  {3365746d-ffb7-4346-98d7-eb88d96643c7}, !- Handle
  {3b6566ff-b5b2-46b1-bcf8-d35f49978546}, !- Name
  {ec7473ad-99c4-4e52-8818-241621cfc86f}; !- Thermal Zone

OS:Space,
  {d56d07fc-210f-4461-8d49-53d75f22fb65}, !- Handle
  Thermal Zone 6 Thermal Zone,            !- Name
  ,                                       !- Space Type Name
  ,                                       !- Default Construction Set Name
  ,                                       !- Default Schedule Set Name
  -0,                                     !- Direction of Relative North {deg}
  0,                                      !- X Origin {m}
  0,                                      !- Y Origin {m}
  2.35,                                   !- Z Origin {m}
  ,                                       !- Building Story Name
  {ec7473ad-99c4-4e52-8818-241621cfc86f}; !- Thermal Zone Name

OS:Schedule:Year,
  {f8aae47b-7880-4216-9e77-e8a5dfbbeea6}, !- Handle
  Office Infil Quarter On 7,              !- Name
  {98e9dd64-3e5e-440f-85eb-b2f3768d696b}, !- Schedule Type Limits Name
  1,                                      !- Month 1
  3,                                      !- Day 1
  {5c6a8dca-1969-4cfd-9181-d5b1848aa83e}, !- Week Schedule Until Date 1
  12,                                     !- Month 2
  31,                                     !- Day 2
  {bdbde86d-4c92-46c4-8883-896b327dda7b}; !- Week Schedule Until Date 2

OS:Schedule:Week,
  {5c6a8dca-1969-4cfd-9181-d5b1848aa83e}, !- Handle
  Schedule:Week:Daily {e30d1fc3-f03c-4af2-bf31-60e8656790ae}, !- Name
  ,                                       !- Schedule Rendering Name
  {383bc40c-9320-4289-902b-06f98ab10006}, !- Sunday Schedule:Day Name
  {383bc40c-9320-4289-902b-06f98ab10006}, !- Monday Schedule:Day Name
  {383bc40c-9320-4289-902b-06f98ab10006}, !- Tuesday Schedule:Day Name
  {383bc40c-9320-4289-902b-06f98ab10006}, !- Wednesday Schedule:Day Name
  {383bc40c-9320-4289-902b-06f98ab10006}, !- Thursday Schedule:Day Name
  {383bc40c-9320-4289-902b-06f98ab10006}, !- Friday Schedule:Day Name
  {d3a50071-4098-4738-b3c6-e9488042ba60}, !- Saturday Schedule:Day Name
  {383bc40c-9320-4289-902b-06f98ab10006}, !- Holiday Schedule:Day Name
  {5ed8286d-c6a9-413f-bba8-9b1318414ec5}, !- SummerDesignDay Schedule:Day Name
  {2c94a6f9-e768-42e0-8f26-9cfc4eab70ac}, !- WinterDesignDay Schedule:Day Name
  {383bc40c-9320-4289-902b-06f98ab10006}, !- CustomDay1 Schedule:Day Name
  {383bc40c-9320-4289-902b-06f98ab10006}; !- CustomDay2 Schedule:Day Name

OS:Schedule:Day,
  {383bc40c-9320-4289-902b-06f98ab10006}, !- Handle
  Office Infil Quarter On Default Schedule 7, !- Name
  {98e9dd64-3e5e-440f-85eb-b2f3768d696b}, !- Schedule Type Limits Name
  ,                                       !- Interpolate to Timestep
  6,                                      !- Hour 1
  0,                                      !- Minute 1
  1,                                      !- Value Until Time 1
  22,                                     !- Hour 2
  0,                                      !- Minute 2
  0.25,                                   !- Value Until Time 2
  24,                                     !- Hour 3
  0,                                      !- Minute 3
  1;                                      !- Value Until Time 3

OS:Schedule:Day,
  {d3a50071-4098-4738-b3c6-e9488042ba60}, !- Handle
  Office Infil Quarter On Rule 2 Day Schedule 7, !- Name
  {98e9dd64-3e5e-440f-85eb-b2f3768d696b}, !- Schedule Type Limits Name
  ,                                       !- Interpolate to Timestep
  6,                                      !- Hour 1
  0,                                      !- Minute 1
  1,                                      !- Value Until Time 1
  18,                                     !- Hour 2
  0,                                      !- Minute 2
  0.25,                                   !- Value Until Time 2
  24,                                     !- Hour 3
  0,                                      !- Minute 3
  1;                                      !- Value Until Time 3

OS:Schedule:Day,
  {5ed8286d-c6a9-413f-bba8-9b1318414ec5}, !- Handle
  Office Infil Quarter On Summer Design Day 7, !- Name
  {98e9dd64-3e5e-440f-85eb-b2f3768d696b}, !- Schedule Type Limits Name
  ,                                       !- Interpolate to Timestep
  6,                                      !- Hour 1
  0,                                      !- Minute 1
  1,                                      !- Value Until Time 1
  22,                                     !- Hour 2
  0,                                      !- Minute 2
  0.25,                                   !- Value Until Time 2
  24,                                     !- Hour 3
  0,                                      !- Minute 3
  1;                                      !- Value Until Time 3

OS:Schedule:Day,
  {2c94a6f9-e768-42e0-8f26-9cfc4eab70ac}, !- Handle
  Office Infil Quarter On Winter Design Day 7, !- Name
  {98e9dd64-3e5e-440f-85eb-b2f3768d696b}, !- Schedule Type Limits Name
  ,                                       !- Interpolate to Timestep
  6,                                      !- Hour 1
  0,                                      !- Minute 1
  1,                                      !- Value Until Time 1
  18,                                     !- Hour 2
  0,                                      !- Minute 2
  0.25,                                   !- Value Until Time 2
  24,                                     !- Hour 3
  0,                                      !- Minute 3
  1;                                      !- Value Until Time 3

OS:Schedule:Week,
  {bdbde86d-4c92-46c4-8883-896b327dda7b}, !- Handle
  Schedule:Week:Daily {71c4db35-6d6e-4c55-a517-ae56f21bfdcb}, !- Name
  ,                                       !- Schedule Rendering Name
  {a2813d23-f860-4dd1-ba9d-d3951b9fea73}, !- Sunday Schedule:Day Name
  {383bc40c-9320-4289-902b-06f98ab10006}, !- Monday Schedule:Day Name
  {383bc40c-9320-4289-902b-06f98ab10006}, !- Tuesday Schedule:Day Name
  {383bc40c-9320-4289-902b-06f98ab10006}, !- Wednesday Schedule:Day Name
  {383bc40c-9320-4289-902b-06f98ab10006}, !- Thursday Schedule:Day Name
  {383bc40c-9320-4289-902b-06f98ab10006}, !- Friday Schedule:Day Name
  {d3a50071-4098-4738-b3c6-e9488042ba60}, !- Saturday Schedule:Day Name
  {383bc40c-9320-4289-902b-06f98ab10006}, !- Holiday Schedule:Day Name
  {5ed8286d-c6a9-413f-bba8-9b1318414ec5}, !- SummerDesignDay Schedule:Day Name
  {2c94a6f9-e768-42e0-8f26-9cfc4eab70ac}, !- WinterDesignDay Schedule:Day Name
  {383bc40c-9320-4289-902b-06f98ab10006}, !- CustomDay1 Schedule:Day Name
  {383bc40c-9320-4289-902b-06f98ab10006}; !- CustomDay2 Schedule:Day Name

OS:Schedule:Day,
  {a2813d23-f860-4dd1-ba9d-d3951b9fea73}, !- Handle
  Office Infil Quarter On Rule 1 Day Schedule 7, !- Name
  {98e9dd64-3e5e-440f-85eb-b2f3768d696b}, !- Schedule Type Limits Name
  ,                                       !- Interpolate to Timestep
  24,                                     !- Hour 1
  0,                                      !- Minute 1
  1;                                      !- Value Until Time 1

OS:Schedule:Year,
  {b4cd3deb-0297-464f-bc43-321cc063f868}, !- Handle
  Office Bldg Light 13,                   !- Name
  {98e9dd64-3e5e-440f-85eb-b2f3768d696b}, !- Schedule Type Limits Name
  1,                                      !- Month 1
  3,                                      !- Day 1
  {4b56ff5b-ea83-4431-90aa-c89c74adb79e}, !- Week Schedule Until Date 1
  12,                                     !- Month 2
  31,                                     !- Day 2
  {1bffd82c-d06f-4b33-a629-8eacfa973bc5}; !- Week Schedule Until Date 2

OS:Schedule:Week,
  {4b56ff5b-ea83-4431-90aa-c89c74adb79e}, !- Handle
  Schedule:Week:Daily {52ac0917-4113-4957-84cf-c2f05b018113}, !- Name
  ,                                       !- Schedule Rendering Name
  {a0c7e3ac-1945-4e85-acf3-19b8dc85eed6}, !- Sunday Schedule:Day Name
  {a0c7e3ac-1945-4e85-acf3-19b8dc85eed6}, !- Monday Schedule:Day Name
  {a0c7e3ac-1945-4e85-acf3-19b8dc85eed6}, !- Tuesday Schedule:Day Name
  {a0c7e3ac-1945-4e85-acf3-19b8dc85eed6}, !- Wednesday Schedule:Day Name
  {a0c7e3ac-1945-4e85-acf3-19b8dc85eed6}, !- Thursday Schedule:Day Name
  {a0c7e3ac-1945-4e85-acf3-19b8dc85eed6}, !- Friday Schedule:Day Name
  {41d7681e-f6f7-4277-8aee-4e9fe2836d80}, !- Saturday Schedule:Day Name
  {a0c7e3ac-1945-4e85-acf3-19b8dc85eed6}, !- Holiday Schedule:Day Name
  {7adabfe2-c10b-4250-8806-ee5c9c3fb740}, !- SummerDesignDay Schedule:Day Name
  {0a957564-9ff5-49ce-bbc1-bf240e0540ad}, !- WinterDesignDay Schedule:Day Name
  {a0c7e3ac-1945-4e85-acf3-19b8dc85eed6}, !- CustomDay1 Schedule:Day Name
  {a0c7e3ac-1945-4e85-acf3-19b8dc85eed6}; !- CustomDay2 Schedule:Day Name

OS:Schedule:Day,
  {a0c7e3ac-1945-4e85-acf3-19b8dc85eed6}, !- Handle
  Office Bldg Light Default Schedule 13,  !- Name
  {98e9dd64-3e5e-440f-85eb-b2f3768d696b}, !- Schedule Type Limits Name
  ,                                       !- Interpolate to Timestep
  5,                                      !- Hour 1
  0,                                      !- Minute 1
  0.05,                                   !- Value Until Time 1
  7,                                      !- Hour 2
  0,                                      !- Minute 2
  0.1,                                    !- Value Until Time 2
  8,                                      !- Hour 3
  0,                                      !- Minute 3
  0.3,                                    !- Value Until Time 3
  17,                                     !- Hour 4
  0,                                      !- Minute 4
  0.9,                                    !- Value Until Time 4
  18,                                     !- Hour 5
  0,                                      !- Minute 5
  0.7,                                    !- Value Until Time 5
  20,                                     !- Hour 6
  0,                                      !- Minute 6
  0.5,                                    !- Value Until Time 6
  22,                                     !- Hour 7
  0,                                      !- Minute 7
  0.3,                                    !- Value Until Time 7
  23,                                     !- Hour 8
  0,                                      !- Minute 8
  0.1,                                    !- Value Until Time 8
  24,                                     !- Hour 9
  0,                                      !- Minute 9
  0.05;                                   !- Value Until Time 9

OS:Schedule:Day,
  {41d7681e-f6f7-4277-8aee-4e9fe2836d80}, !- Handle
  Office Bldg Light Rule 2 Day Schedule 13, !- Name
  {98e9dd64-3e5e-440f-85eb-b2f3768d696b}, !- Schedule Type Limits Name
  ,                                       !- Interpolate to Timestep
  6,                                      !- Hour 1
  0,                                      !- Minute 1
  0.05,                                   !- Value Until Time 1
  8,                                      !- Hour 2
  0,                                      !- Minute 2
  0.1,                                    !- Value Until Time 2
  14,                                     !- Hour 3
  0,                                      !- Minute 3
  0.5,                                    !- Value Until Time 3
  17,                                     !- Hour 4
  0,                                      !- Minute 4
  0.15,                                   !- Value Until Time 4
  24,                                     !- Hour 5
  0,                                      !- Minute 5
  0.05;                                   !- Value Until Time 5

OS:Schedule:Day,
  {7adabfe2-c10b-4250-8806-ee5c9c3fb740}, !- Handle
  Office Bldg Light Summer Design Day 13, !- Name
  {98e9dd64-3e5e-440f-85eb-b2f3768d696b}, !- Schedule Type Limits Name
  ,                                       !- Interpolate to Timestep
  24,                                     !- Hour 1
  0,                                      !- Minute 1
  1;                                      !- Value Until Time 1

OS:Schedule:Day,
  {0a957564-9ff5-49ce-bbc1-bf240e0540ad}, !- Handle
  Office Bldg Light Winter Design Day 13, !- Name
  {98e9dd64-3e5e-440f-85eb-b2f3768d696b}, !- Schedule Type Limits Name
  ,                                       !- Interpolate to Timestep
  24,                                     !- Hour 1
  0,                                      !- Minute 1
  0;                                      !- Value Until Time 1

OS:Schedule:Week,
  {1bffd82c-d06f-4b33-a629-8eacfa973bc5}, !- Handle
  Schedule:Week:Daily {c7a8b6ad-4368-4abf-a154-1148ea9cb10e}, !- Name
  ,                                       !- Schedule Rendering Name
  {51d3c867-49ef-4b66-91d0-de6a19b1851f}, !- Sunday Schedule:Day Name
  {a0c7e3ac-1945-4e85-acf3-19b8dc85eed6}, !- Monday Schedule:Day Name
  {a0c7e3ac-1945-4e85-acf3-19b8dc85eed6}, !- Tuesday Schedule:Day Name
  {a0c7e3ac-1945-4e85-acf3-19b8dc85eed6}, !- Wednesday Schedule:Day Name
  {a0c7e3ac-1945-4e85-acf3-19b8dc85eed6}, !- Thursday Schedule:Day Name
  {a0c7e3ac-1945-4e85-acf3-19b8dc85eed6}, !- Friday Schedule:Day Name
  {41d7681e-f6f7-4277-8aee-4e9fe2836d80}, !- Saturday Schedule:Day Name
  {a0c7e3ac-1945-4e85-acf3-19b8dc85eed6}, !- Holiday Schedule:Day Name
  {7adabfe2-c10b-4250-8806-ee5c9c3fb740}, !- SummerDesignDay Schedule:Day Name
  {0a957564-9ff5-49ce-bbc1-bf240e0540ad}, !- WinterDesignDay Schedule:Day Name
  {a0c7e3ac-1945-4e85-acf3-19b8dc85eed6}, !- CustomDay1 Schedule:Day Name
  {a0c7e3ac-1945-4e85-acf3-19b8dc85eed6}; !- CustomDay2 Schedule:Day Name

OS:Schedule:Day,
  {51d3c867-49ef-4b66-91d0-de6a19b1851f}, !- Handle
  Office Bldg Light Rule 1 Day Schedule 13, !- Name
  {98e9dd64-3e5e-440f-85eb-b2f3768d696b}, !- Schedule Type Limits Name
  ,                                       !- Interpolate to Timestep
  24,                                     !- Hour 1
  0,                                      !- Minute 1
  0.05;                                   !- Value Until Time 1

OS:RunPeriod,
  {f553e7e0-52c9-4c49-b0e9-5d61545d533d}, !- Handle
  Run Period 1,                           !- Name
  1,                                      !- Begin Month
  1,                                      !- Begin Day of Month
  12,                                     !- End Month
  31,                                     !- End Day of Month
  No,                                     !- Use Weather File Holidays and Special Days
  No,                                     !- Use Weather File Daylight Saving Period
  No,                                     !- Apply Weekend Holiday Rule
  Yes,                                    !- Use Weather File Rain Indicators
  Yes,                                    !- Use Weather File Snow Indicators
  1;                                      !- Number of Times Runperiod to be Repeated

OS:Schedule:Day,
  {94f6e71b-eb23-4de3-9bbb-adcab9d59cd9}, !- Handle
  Office Bldg Light Default Schedule 6,   !- Name
  {98e9dd64-3e5e-440f-85eb-b2f3768d696b}, !- Schedule Type Limits Name
  ,                                       !- Interpolate to Timestep
  5,                                      !- Hour 1
  0,                                      !- Minute 1
  0.05,                                   !- Value Until Time 1
  7,                                      !- Hour 2
  0,                                      !- Minute 2
  0.1,                                    !- Value Until Time 2
  8,                                      !- Hour 3
  0,                                      !- Minute 3
  0.3,                                    !- Value Until Time 3
  17,                                     !- Hour 4
  0,                                      !- Minute 4
  0.9,                                    !- Value Until Time 4
  18,                                     !- Hour 5
  0,                                      !- Minute 5
  0.7,                                    !- Value Until Time 5
  20,                                     !- Hour 6
  0,                                      !- Minute 6
  0.5,                                    !- Value Until Time 6
  22,                                     !- Hour 7
  0,                                      !- Minute 7
  0.3,                                    !- Value Until Time 7
  23,                                     !- Hour 8
  0,                                      !- Minute 8
  0.1,                                    !- Value Until Time 8
  24,                                     !- Hour 9
  0,                                      !- Minute 9
  0.05;                                   !- Value Until Time 9

OS:Schedule:Day,
  {15113dad-8f29-4a71-9a2f-9f6dfac08a4d}, !- Handle
  Medium Office ClgSetp Default Schedule, !- Name
  {507b7ecd-3ef8-47db-b23a-3e210c6733be}, !- Schedule Type Limits Name
  ,                                       !- Interpolate to Timestep
  6,                                      !- Hour 1
  0,                                      !- Minute 1
  26.7,                                   !- Value Until Time 1
  22,                                     !- Hour 2
  0,                                      !- Minute 2
  24,                                     !- Value Until Time 2
  24,                                     !- Hour 3
  0,                                      !- Minute 3