
OS:Version,
  {f1b17975-4c63-4f2c-8054-8dbbae630374}, !- Handle
  2.0.4;                                  !- Version Identifier

OS:Site,
  {206ffe67-ad13-4907-9bdf-21a2dfa0b5a3}, !- Handle
  Pittsburgh Allegheny Co Ap_PA_USA Design_Conditions, !- Name
  40.35,                                  !- Latitude {deg}
  -79.92,                                 !- Longitude {deg}
  -5,                                     !- Time Zone {hr}
  380,                                    !- Elevation {m}
  City;                                   !- Terrain

OS:SimulationControl,
  {3b91c957-6397-49df-8005-640fada627ab}, !- Handle
  Yes,                                    !- Do Zone Sizing Calculation
  Yes,                                    !- Do System Sizing Calculation
  No,                                     !- Do Plant Sizing Calculation
  No,                                     !- Run Simulation for Sizing Periods
  Yes,                                    !- Run Simulation for Weather File Run Periods
  0.04,                                   !- Loads Convergence Tolerance Value
  0.4,                                    !- Temperature Convergence Tolerance Value {deltaC}
  FullExterior,                           !- Solar Distribution
  25,                                     !- Maximum Number of Warmup Days
  6;                                      !- Minimum Number of Warmup Days

OS:Construction,
  {3f83bc13-9f38-4371-aa0e-f8bd4fee063a}, !- Handle
  FLOOR-SLAB-1,                           !- Name
  {b5b1703a-6794-408a-9dc2-12a5bc9af4a3}, !- Surface Rendering Name
  {f4c4823e-8589-4f27-ac6f-e44c31115d22}, !- Layer 1
  {7dd56089-c03b-4971-aa16-a538c70e4ad2}; !- Layer 2

OS:Material,
  {f4c4823e-8589-4f27-ac6f-e44c31115d22}, !- Handle
  CC03,                                   !- Name
  MediumRough,                            !- Roughness
  0.1016,                                 !- Thickness {m}
  1.31,                                   !- Conductivity {W/m-K}
  2243,                                   !- Density {kg/m3}
  837,                                    !- Specific Heat {J/kg-K}
  0.9,                                    !- Thermal Absorptance
  0.65,                                   !- Solar Absorptance
  0.65;                                   !- Visible Absorptance

OS:Material:NoMass,
  {7dd56089-c03b-4971-aa16-a538c70e4ad2}, !- Handle
  CP01,                                   !- Name
  Rough,                                  !- Roughness
  0.367,                                  !- Thermal Resistance {m2-K/W}
  0.9,                                    !- Thermal Absorptance
  0.75,                                   !- Solar Absorptance
  0.75;                                   !- Visible Absorptance

OS:Output:Variable,
  {3b4b837b-dc31-4f9a-8a86-b0d5430ac815}, !- Handle
  {73c80630-652f-4ae4-ba45-37d4c8a11904}, !- Name
  VAV SYS 1 OUTLET NODE,                  !- Key Value
  System Node Temperature,                !- Variable Name
  timestep;                               !- Reporting Frequency

OS:EnergyManagementSystem:GlobalVariable,
  {b0a81b8c-ea8a-42c8-b62d-57e5ce8929fc}, !- Handle
  IAT_SP;                                 !- Name

OS:Construction,
  {520ba879-826f-4c6d-b9f1-387ece1a11f0}, !- Handle
  CLNG-1,                                 !- Name
  {58bffa06-a9fe-42af-add2-2cfe5d1d7f88}, !- Surface Rendering Name
  {509e4e97-dad6-4588-aa24-e318f6ddd2eb}; !- Layer 1

OS:Material:NoMass,
  {509e4e97-dad6-4588-aa24-e318f6ddd2eb}, !- Handle
  MAT-CLNG-1,                             !- Name
  Rough,                                  !- Roughness
  0.65225929,                             !- Thermal Resistance {m2-K/W}
  0.65,                                   !- Thermal Absorptance
  0.65,                                   !- Solar Absorptance
  0.65;                                   !- Visible Absorptance

OS:Output:Variable,
  {64863d31-cd4a-4be0-801e-182f00a1ef5f}, !- Handle
  {e60f315c-c3e6-4be6-9f37-bc7f7accbc8f}, !- Name
  VAV SYS 1 Inlet NODE,                   !- Key Value
  System Node Temperature,                !- Variable Name
  timestep;                               !- Reporting Frequency

OS:Schedule:Compact,
  {5d2b19a7-56b2-4205-b24a-3337b02d9b28}, !- Handle
  Min OARequirements Sched,               !- Name
  ,                                       !- Schedule Type Limits Name
  Through: 12/31,                         !- Field 1
  For: AllDays,                           !- Field 2
  Until: 24:00,                           !- Field 3
  1.0;                                    !- Field 4

OS:ScheduleTypeLimits,
  {f0f101ab-c1c5-43ae-b100-5d8bf5920290}, !- Handle
  {88522f47-5cd0-425d-936f-b671f28ee7c6}; !- Name

OS:EnergyManagementSystem:GlobalVariable,
  {1b577b25-1f2c-420c-b4de-31f01948ad2e}, !- Handle
  MeanPPD;                                !- Name

OS:EnergyManagementSystem:Sensor,
  {2e4421dc-07eb-4f24-8073-25342b5c9c65}, !- Handle
  PPD_1,                                  !- Name
  SPACE1-1 People 1,                      !- Output Variable or Output Meter Index Key Name
  Zone Thermal Comfort Fanger Model PPD;  !- Output Variable or Output Meter Name

OS:Output:Variable,
  {3e1b5082-7db4-43eb-beb5-e1147db8b678}, !- Handle
  {ca23d9b7-4256-4345-87ea-4704a93d909c}, !- Name
  SPACE4-1 IN NODE,                       !- Key Value
  System Node Mass Flow Rate,             !- Variable Name
  timestep;                               !- Reporting Frequency

OS:Output:Variable,
  {bdc7d177-fba1-4b02-a52d-7e07965780b0}, !- Handle
  {243f5778-9da7-4b7f-b2d7-48325fe2fc5b}, !- Name
  SPACE1-1 IN NODE,                       !- Key Value
  System Node Mass Flow Rate,             !- Variable Name
  timestep;                               !- Reporting Frequency

OS:Output:Variable,
  {cdbef70e-2a38-416c-9348-febc4d7c054e}, !- Handle
  {61edf994-e5df-477c-a32c-d097eb04c3a2}, !- Name
  Main Heating Coil 1,                    !- Key Value
  Heating Coil Electric Power,            !- Variable Name
  timestep;                               !- Reporting Frequency

OS:Output:Variable,
  {75664918-6408-4fbe-89e1-88ca0f5af3cf}, !- Handle
  {5bec60b6-e1ca-4202-82d3-468f8ca66050}, !- Name
  Outside Air Inlet Node 1,               !- Key Value
  System Node Temperature,                !- Variable Name
  timestep;                               !- Reporting Frequency

OS:Output:Variable,
  {605a4a2a-b70d-4ded-b1fc-877579ed68ea}, !- Handle
  {f493a5f9-b470-4dd7-bb27-619e4fb11b3b}, !- Name
  *,                                      !- Key Value
  Site Outdoor Air Relative Humidity,     !- Variable Name
  timestep;                               !- Reporting Frequency

OS:Output:Variable,
  {fbcefb3a-8bf3-4346-ab8b-a30301bf24d8}, !- Handle
  {b091acda-3614-4ca1-b3be-4af9915d370f}, !- Name
  Mixed Air Node 1,                       !- Key Value
  System Node Temperature,                !- Variable Name
  timestep;                               !- Reporting Frequency

OS:Output:Variable,
  {9d307a6b-6536-40be-87be-b577a71f6609}, !- Handle
  {5a1bb857-dabc-4b4c-9974-6fbad8f4a122}, !- Name
  SPACE2-1 IN NODE,                       !- Key Value
  System Node Mass Flow Rate,             !- Variable Name
  timestep;                               !- Reporting Frequency

OS:Output:Variable,
  {352dc767-7b7d-4509-92e0-53e269ceefa2}, !- Handle
  {969864b5-756b-4134-b65e-27e20ec73195}, !- Name
  SPACE5-1 IN NODE,                       !- Key Value
  System Node Temperature,                !- Variable Name
  timestep;                               !- Reporting Frequency

OS:Output:Variable,
  {7d75396b-76d0-45df-b3ca-9c43fe18786a}, !- Handle
  {1c035013-ed0f-46c0-932d-2abdbf3e6eee}, !- Name
  *,                                      !- Key Value
  Site Wind Speed,                        !- Variable Name
  timestep;                               !- Reporting Frequency

OS:Output:Variable,
  {17b5f626-6953-48f7-8cb9-efe0247b6704}, !- Handle
  {ea35d11a-2fe9-4d85-b05b-57a7eacbc994}, !- Name
  Mixed Air Node 1,                       !- Key Value
  System Node Mass Flow Rate,             !- Variable Name
  timestep;                               !- Reporting Frequency

OS:Output:Variable,
  {7af675bf-e90b-4309-90b5-b81cc1f8632e}, !- Handle
  {31572b1a-7d0d-4fdf-8cc4-5bf710d56761}, !- Name
  VAV SYS 1 Inlet NODE,                   !- Key Value
  System Node Mass Flow Rate,             !- Variable Name
  timestep;                               !- Reporting Frequency

OS:Output:Variable,
  {382a1d44-f9df-4043-b0c0-e5f377f71494}, !- Handle
  {fd1a3038-eced-4c3e-8322-c1810ef94de9}, !- Name
  SPACE3-1 IN NODE,                       !- Key Value
  System Node Mass Flow Rate,             !- Variable Name
  timestep;                               !- Reporting Frequency

OS:Output:Variable,
  {ee0a73eb-abc6-47e2-b6e7-b4a17d14d80e}, !- Handle
  {c6dfbd98-fd44-47cd-9436-91360904fc2b}, !- Name
  SPACE1-1 IN NODE,                       !- Key Value
  System Node Temperature,                !- Variable Name
  timestep;                               !- Reporting Frequency

OS:Output:Variable,
  {364e97cb-3487-49c1-a8c4-1934937598b8}, !- Handle
  {4367dd69-8cbd-4b82-8da5-06e82972ea34}, !- Name
  VAV SYS 1 OUTLET NODE,                  !- Key Value
  System Node Mass Flow Rate,             !- Variable Name
  timestep;                               !- Reporting Frequency

OS:Output:Variable,
  {6f2e0ede-40c4-4e83-befb-cabb6101268d}, !- Handle
  {5fa627ee-e7f2-4456-8ab2-d1334fb89a84}, !- Name
  SPACE4-1 IN NODE,                       !- Key Value
  System Node Temperature,                !- Variable Name
  timestep;                               !- Reporting Frequency

OS:Output:Variable,
  {2c19ce63-e2b9-46a3-9ec2-2567cc4461f6}, !- Handle
  {061f24f4-1bbd-4b49-91bf-f577c1abf039}, !- Name
  SPACE1-1,                               !- Key Value
  Zone Thermostat Heating Setpoint Temperature, !- Variable Name
  timestep;                               !- Reporting Frequency

OS:Output:Variable,
  {541dbbe3-98f9-4ccd-aa7a-381db881b912}, !- Handle
  {39a61e45-c139-43ba-ac21-082ac49cf758}, !- Name
  SPACE5-1 IN NODE,                       !- Key Value
  System Node Mass Flow Rate,             !- Variable Name
  timestep;                               !- Reporting Frequency

OS:Output:Variable,
  {a60c2582-a1fd-4f69-a0f3-9d94be659787}, !- Handle
  {5fcdab46-8e35-4419-b4f4-136c15aaf373}, !- Name
  *,                                      !- Key Value
  Site Wind Direction,                    !- Variable Name
  timestep;                               !- Reporting Frequency

OS:Output:Variable,
  {68a8ad64-2f16-45b5-b0b9-b1000e1f5ff7}, !- Handle
  {5f7a4451-351f-4aac-95a3-124e095828ec}, !- Name
  *,                                      !- Key Value
  Site Direct Solar Radiation Rate per Area, !- Variable Name
  timestep;                               !- Reporting Frequency

OS:Output:Variable,
  {b9c23ecb-5ddc-4778-9c68-69effaa55ef2}, !- Handle
  {c804fd4f-b474-449e-900c-5010ae9f9456}, !- Name
  *,                                      !- Key Value
  Site Outdoor Air Drybulb Temperature,   !- Variable Name
  timestep;                               !- Reporting Frequency

OS:Output:Variable,
  {c6d966de-a70d-49e2-90d9-3fca1b3d3e97}, !- Handle
  {e93dd4f1-84ea-4e3c-a465-024a7b658b4a}, !- Name
  Outside Air Inlet Node 1,               !- Key Value
  System Node Mass Flow Rate,             !- Variable Name
  timestep;                               !- Reporting Frequency

OS:Output:Variable,
  {a16f4511-1564-4de5-8fb9-41fbb83bb0e4}, !- Handle
  {3104aeec-2840-4ffa-b399-6b07fb2a32fe}, !- Name
  *,                                      !- Key Value
  Facility Total HVAC Electric Demand Power, !- Variable Name
  timestep;                               !- Reporting Frequency

OS:Output:Variable,
  {d0f5537e-7e6b-45a1-894c-8da355675039}, !- Handle
  {a6faa61f-9df3-49af-8eaf-88f0146b5ee6}, !- Name
  *,                                      !- Key Value
  Building Mean PPD,                      !- Variable Name
  timestep;                               !- Reporting Frequency

OS:Output:Variable,
  {c8da3560-f648-4685-83ef-ea54d852243b}, !- Handle
  {3098d03c-06dd-4263-918e-3fbaaabc0811}, !- Name
  *,                                      !- Key Value
  Site Diffuse Solar Radiation Rate per Area, !- Variable Name
  timestep;                               !- Reporting Frequency

OS:Output:Variable,
  {cca311d7-729e-4b8d-987a-ca084d06a7f9}, !- Handle
  {e7a0c4bb-2ebe-4b1a-833a-8668314a2706}, !- Name
  *,                                      !- Key Value
  Building Mean Temperature,              !- Variable Name
  timestep;                               !- Reporting Frequency

OS:Output:Variable,
  {1a1873f1-af6d-4fdd-80e3-eb66b1db5ced}, !- Handle
  {828ae928-f322-4e7f-86e3-be61bfc0bef9}, !- Name
  SPACE1-1,                               !- Key Value
  Zone Thermostat Cooling Setpoint Temperature, !- Variable Name
  timestep;                               !- Reporting Frequency

OS:Output:Variable,
  {28d75561-ea55-4794-8e94-b696f218b660}, !- Handle
  {b652e0b0-f39d-463d-abdb-9f9eeab0925a}, !- Name
  SPACE3-1 IN NODE,                       !- Key Value
  System Node Temperature,                !- Variable Name
  timestep;                               !- Reporting Frequency

OS:Output:Variable,
  {e19df236-91b9-49e0-8973-1a2b44b413b6}, !- Handle
  {7677de7e-7ec3-4ae8-8a51-60bbf067650a}, !- Name
  SPACE2-1 IN NODE,                       !- Key Value
  System Node Temperature,                !- Variable Name
  timestep;                               !- Reporting Frequency

OS:Output:Variable,
  {c0070aeb-dd27-4820-9b63-43d63fa7ae5b}, !- Handle
  {ee3f0835-29cd-4abc-b46a-be406218f61b}, !- Name
  *,                                      !- Key Value
  Building Total Occupants,               !- Variable Name
  timestep;                               !- Reporting Frequency

OS:Curve:Quadratic,
  {16384df4-5a94-4746-9dac-6558ebed4b26}, !- Handle
  VarSpeedCyclingPLFFPLR,                 !- Name
  0.85,                                   !- Coefficient1 Constant
  0.15,                                   !- Coefficient2 x
  0,                                      !- Coefficient3 x**2
  0,                                      !- Minimum Value of x
  1;                                      !- Maximum Value of x

OS:Construction,
  {e1d02740-155c-4693-bf79-9d3ff2c41a7c}, !- Handle
  FLOOR-1,                                !- Name
  {138753b8-248d-4212-891a-bf356fa81fdd}, !- Surface Rendering Name
  {a446d025-3c5a-4d28-9239-2ffd5ab4253c}; !- Layer 1

OS:Material:NoMass,
  {a446d025-3c5a-4d28-9239-2ffd5ab4253c}, !- Handle
  MAT-FLOOR-1,                            !- Name
  Rough,                                  !- Roughness
  3.522199631,                            !- Thermal Resistance {m2-K/W}
  0.65,                                   !- Thermal Absorptance
  0.65,                                   !- Solar Absorptance
  0.65;                                   !- Visible Absorptance

OS:People:Definition,
  {8ca467c9-e95a-423a-890c-5a7411b38f7d}, !- Handle
  SPACE1-1 People 1 Definition,           !- Name
  People,                                 !- Number of People Calculation Method
  11,                                     !- Number of People {people}
  ,                                       !- People per Space Floor Area {person/m2}
  ,                                       !- Space Floor Area per Person {m2/person}
  0.3,                                    !- Fraction Radiant
  ,                                       !- Sensible Heat Fraction
  3.82e-008,                              !- Carbon Dioxide Generation Rate {m3/s-W}
  No,                                     !- Enable ASHRAE 55 Comfort Warnings
  ZoneAveraged,                           !- Mean Radiant Temperature Calculation Type
  Fanger;                                 !- Thermal Comfort Model Type 1

OS:People,
  {4ab790ab-9c39-45d4-bd46-5afc750c7b06}, !- Handle
  SPACE1-1 People 1,                      !- Name
  {8ca467c9-e95a-423a-890c-5a7411b38f7d}, !- People Definition Name
  {f7de72c6-2c15-4ddc-b7e3-6cbaab163264}, !- Space or SpaceType Name
  {71e20465-c56a-42f9-a223-9d7d3b889f15}, !- Number of People Schedule Name
  {e43e1421-a47a-4e7c-881e-8061239cad72}, !- Activity Level Schedule Name
  ,                                       !- Surface Name/Angle Factor List Name
  {178a9ab3-e233-447d-a761-75c40f71265f}, !- Work Efficiency Schedule Name
  ,                                       !- Clothing Insulation Schedule Name
  {8b8795c1-9f25-4250-858c-9bfaa5125dbc}; !- Air Velocity Schedule Name

OS:ThermalZone,
  {c6226a9b-7bb9-4c05-89d3-d489f8fff962}, !- Handle
  SPACE1-1 Thermal Zone,                  !- Name
  1,                                      !- Multiplier
  2.438400269,                            !- Ceiling Height {m}
  239.247360229,                          !- Volume {m3}
  ,                                       !- Floor Area {m2}
  ,                                       !- Zone Inside Convection Algorithm
  ,                                       !- Zone Outside Convection Algorithm
  ,                                       !- Zone Conditioning Equipment List Name
  {5b5711a5-79a3-4fe1-ab33-64c8790cb369}, !- Zone Air Inlet Port List
  {69c3e0c3-8240-4b7f-bfa8-d536c9d960d4}, !- Zone Air Exhaust Port List
  {85001408-e4aa-4a88-b5b7-b299c98ce038}, !- Zone Air Node Name
  ,                                       !- Zone Return Air Node Name
  ,                                       !- Primary Daylighting Control Name
  ,                                       !- Fraction of Zone Controlled by Primary Daylighting Control
  ,                                       !- Secondary Daylighting Control Name
  ,                                       !- Fraction of Zone Controlled by Secondary Daylighting Control
  ,                                       !- Illuminance Map Name
  {3a8412bb-1541-4220-9750-393a87724e2a}, !- Group Rendering Name
  {08ae9877-c184-418c-9004-54ae3cc2ac48}, !- Thermostat Name
  No;                                     !- Use Ideal Air Loads

OS:Node,
  {5d0808f5-f803-491b-a8a9-d12543ebced9}, !- Handle
  {d28767b2-a549-4285-8a31-4d7d5c226d35}, !- Name
  {85001408-e4aa-4a88-b5b7-b299c98ce038}, !- Inlet Port
  ;                                       !- Outlet Port

OS:Connection,
  {85001408-e4aa-4a88-b5b7-b299c98ce038}, !- Handle
  {0989744e-cd99-4f30-a7c7-6b1df326e851}, !- Name
  {c6226a9b-7bb9-4c05-89d3-d489f8fff962}, !- Source Object
  11,                                     !- Outlet Port
  {5d0808f5-f803-491b-a8a9-d12543ebced9}, !- Target Object
  2;                                      !- Inlet Port

OS:PortList,
  {5b5711a5-79a3-4fe1-ab33-64c8790cb369}, !- Handle
  {15e338c9-d1b2-4fbf-a7d6-2ef32fb80024}, !- Name
  {c6226a9b-7bb9-4c05-89d3-d489f8fff962}; !- HVAC Component

OS:PortList,
  {69c3e0c3-8240-4b7f-bfa8-d536c9d960d4}, !- Handle
  {35fe3443-cabd-4c29-b498-bf3d72d521c4}, !- Name
  {c6226a9b-7bb9-4c05-89d3-d489f8fff962}; !- HVAC Component

OS:Sizing:Zone,
  {33cf0c55-f267-497c-8fa2-81271a0caf2b}, !- Handle
  {c6226a9b-7bb9-4c05-89d3-d489f8fff962}, !- Zone or ZoneList Name
  SupplyAirTemperature,                   !- Zone Cooling Design Supply Air Temperature Input Method
  16,                                     !- Zone Cooling Design Supply Air Temperature {C}
  11.11,                                  !- Zone Cooling Design Supply Air Temperature Difference {deltaC}
  SupplyAirTemperature,                   !- Zone Heating Design Supply Air Temperature Input Method
  35,                                     !- Zone Heating Design Supply Air Temperature {C}
  11.11,                                  !- Zone Heating Design Supply Air Temperature Difference {deltaC}
  0.0085,                                 !- Zone Cooling Design Supply Air Humidity Ratio {kg-H2O/kg-air}
  0.004,                                  !- Zone Heating Design Supply Air Humidity Ratio {kg-H2O/kg-air}
  0,                                      !- Zone Heating Sizing Factor
  0,                                      !- Zone Cooling Sizing Factor
  DesignDay,                              !- Cooling Design Air Flow Method
  0,                                      !- Cooling Design Air Flow Rate {m3/s}
  ,                                       !- Cooling Minimum Air Flow per Zone Floor Area {m3/s-m2}
  ,                                       !- Cooling Minimum Air Flow {m3/s}
  ,                                       !- Cooling Minimum Air Flow Fraction
  DesignDay,                              !- Heating Design Air Flow Method
  0,                                      !- Heating Design Air Flow Rate {m3/s}
  ,                                       !- Heating Maximum Air Flow per Zone Floor Area {m3/s-m2}
  ,                                       !- Heating Maximum Air Flow {m3/s}
  ,                                       !- Heating Maximum Air Flow Fraction
  ,                                       !- Design Zone Air Distribution Effectiveness in Cooling Mode
  ,                                       !- Design Zone Air Distribution Effectiveness in Heating Mode
  No,                                     !- Account for Dedicated Outdoor Air System
  NeutralSupplyAir,                       !- Dedicated Outdoor Air System Control Strategy
  autosize,                               !- Dedicated Outdoor Air Low Setpoint Temperature for Design {C}
  autosize;                               !- Dedicated Outdoor Air High Setpoint Temperature for Design {C}

OS:ZoneHVAC:EquipmentList,
  {6e5372d1-4e4d-4e8c-8765-b4fe95af109b}, !- Handle
  {a3f0808d-752d-47eb-83a6-e5c33d6963e2}, !- Name
  {c6226a9b-7bb9-4c05-89d3-d489f8fff962}; !- Thermal Zone

OS:Space,
  {f7de72c6-2c15-4ddc-b7e3-6cbaab163264}, !- Handle
  SPACE1-1,                               !- Name
  ,                                       !- Space Type Name
  ,                                       !- Default Construction Set Name
  ,                                       !- Default Schedule Set Name
  0,                                      !- Direction of Relative North {deg}
  0,                                      !- X Origin {m}
  0,                                      !- Y Origin {m}
  0,                                      !- Z Origin {m}
  ,                                       !- Building Story Name
  {c6226a9b-7bb9-4c05-89d3-d489f8fff962}, !- Thermal Zone Name
  ,                                       !- Part of Total Floor Area
  {012f035a-6f12-47c7-944f-9d223e2b9c4c}; !- Design Specification Outdoor Air Object Name

OS:ThermostatSetpoint:DualSetpoint,
  {08ae9877-c184-418c-9004-54ae3cc2ac48}, !- Handle
  {c9aa77d4-c089-45e8-b2af-013b0e99b120}, !- Name
  {e6834596-c8d1-4315-9518-fea0ee692c07}, !- Heating Setpoint Temperature Schedule Name
  {2bb05e9c-1054-4c9c-97d5-51fec0a785b8}; !- Cooling Setpoint Temperature Schedule Name

OS:Schedule:Compact,
  {e6834596-c8d1-4315-9518-fea0ee692c07}, !- Handle
  Htg-SetP-Sch,                           !- Name
  {b453287f-c3fa-44b8-a37b-6e6137bca9c0}, !- Schedule Type Limits Name
  Through: 12/31,                         !- Field 1
  For: SummerDesignDay,                   !- Field 2
  Until: 24:00,                           !- Field 3
  12.8,                                   !- Field 4
  For: WinterDesignDay,                   !- Field 5
  Until: 24:00,                           !- Field 6
  21.1,                                   !- Field 7
  For: AllOtherDays,                      !- Field 8
  Until: 7:00,                            !- Field 9
  12.8,                                   !- Field 10
  Until: 18:00,                           !- Field 11
  21.1,                                   !- Field 12
  Until: 24:00,                           !- Field 13
  12.8;                                   !- Field 14

OS:ScheduleTypeLimits,
  {b453287f-c3fa-44b8-a37b-6e6137bca9c0}, !- Handle
  Temperature,                            !- Name
  -60,                                    !- Lower Limit Value
  200,                                    !- Upper Limit Value
  CONTINUOUS,                             !- Numeric Type
  Temperature;                            !- Unit Type

OS:Schedule:Compact,
  {2bb05e9c-1054-4c9c-97d5-51fec0a785b8}, !- Handle
  Clg-SetP-Sch,                           !- Name
  {b453287f-c3fa-44b8-a37b-6e6137bca9c0}, !- Schedule Type Limits Name
  Through: 12/31,                         !- Field 1
  For: SummerDesignDay,                   !- Field 2
  Until: 24:00,                           !- Field 3
  23.9,                                   !- Field 4
  For: WinterDesignDay,                   !- Field 5
  Until: 24:00,                           !- Field 6
  40.0,                                   !- Field 7
  For: AllOtherDays,                      !- Field 8
  Until: 7:00,                            !- Field 9
  40.0,                                   !- Field 10
  Until: 18:00,                           !- Field 11
  23.9,                                   !- Field 12
  Until: 24:00,                           !- Field 13
  40.0;                                   !- Field 14

OS:Schedule:Compact,
  {71e20465-c56a-42f9-a223-9d7d3b889f15}, !- Handle
  OCCUPY-1,                               !- Name
  {86cadc04-eb4f-4e66-80d2-bd356eede6f6}, !- Schedule Type Limits Name
  Through: 12/31,                         !- Field 1
  For: AllDays,                           !- Field 2
  Until: 8:00,                            !- Field 3
  0.0,                                    !- Field 4
  Until: 18:00,                           !- Field 5
  1.00,                                   !- Field 6
  Until: 24:00,                           !- Field 7
  0.0;                                    !- Field 8

OS:ScheduleTypeLimits,
  {86cadc04-eb4f-4e66-80d2-bd356eede6f6}, !- Handle
  Fraction,                               !- Name
  0,                                      !- Lower Limit Value
  1,                                      !- Upper Limit Value
  CONTINUOUS;                             !- Numeric Type

OS:Schedule:Compact,
  {e43e1421-a47a-4e7c-881e-8061239cad72}, !- Handle
  ActSchd,                                !- Name
  {9bd3eeeb-d99d-43ae-8f50-fddfe7057104}, !- Schedule Type Limits Name
  Through: 12/31,                         !- Field 1
  For: AllDays,                           !- Field 2
  Until: 24:00,                           !- Field 3
  117.239997864;                          !- Field 4

OS:ScheduleTypeLimits,
  {b2eb0700-dd70-4add-8e75-7ab33ab20e18}, !- Handle
  {1d83ecd6-b90d-4dd9-a9b4-9ea6911e3d24}; !- Name

OS:ScheduleTypeLimits,
  {9bd3eeeb-d99d-43ae-8f50-fddfe7057104}, !- Handle
  ActivityLevel,                          !- Name
  0,                                      !- Lower Limit Value
  ,                                       !- Upper Limit Value
  Continuous,                             !- Numeric Type
  ActivityLevel;                          !- Unit Type

OS:Schedule:Compact,
  {178a9ab3-e233-447d-a761-75c40f71265f}, !- Handle
  WorkEffSch,                             !- Name
  {86cadc04-eb4f-4e66-80d2-bd356eede6f6}, !- Schedule Type Limits Name
  Through: 12/31,                         !- Field 1
  For: AllDays,                           !- Field 2
  Until: 24:00,                           !- Field 3
  0.0;                                    !- Field 4

OS:Schedule:Compact,
  {8b8795c1-9f25-4250-858c-9bfaa5125dbc}, !- Handle
  AirVelocitySch,                         !- Name
  {2d9f2d8d-95f2-416b-ac36-31f090b6dd04}, !- Schedule Type Limits Name
  Through: 12/31,                         !- Field 1
  For: AllDays,                           !- Field 2
  Until: 24:00,                           !- Field 3
  .137;                                   !- Field 4

OS:ScheduleTypeLimits,
  {65cb7717-13d2-4a89-9009-ce613e283f90}, !- Handle
  {87f7aad8-e8fc-451d-aa83-ded1637bf416}; !- Name

OS:ScheduleTypeLimits,
  {2d9f2d8d-95f2-416b-ac36-31f090b6dd04}, !- Handle
  Velocity,                               !- Name
  0,                                      !- Lower Limit Value
  ,                                       !- Upper Limit Value
  Continuous,                             !- Numeric Type
  Velocity;                               !- Unit Type

OS:Lights:Definition,
  {9ae8eec8-ea02-4830-984f-246ee1321986}, !- Handle
  SPACE4-1 Lights 1 Definition,           !- Name
  LightingLevel,                          !- Design Level Calculation Method
  684,                                    !- Lighting Level {W}
  ,                                       !- Watts per Space Floor Area {W/m2}
  ,                                       !- Watts per Person {W/person}
  0.59,                                   !- Fraction Radiant
  0.2,                                    !- Fraction Visible
  0.2;                                    !- Return Air Fraction

OS:Lights,
  {8d319e0f-0df4-40d2-b23a-a559d251d0ec}, !- Handle
  SPACE4-1 Lights 1,                      !- Name
  {9ae8eec8-ea02-4830-984f-246ee1321986}, !- Lights Definition Name
  {65c79f6c-0714-4696-80b5-321fdc8902c1}, !- Space or SpaceType Name
  {9b5c64b7-aa1a-4785-afae-6963a0d60b7b}, !- Schedule Name
  0,                                      !- Fraction Replaceable
  ,                                       !- Multiplier
  GeneralLights;                          !- End-Use Subcategory

OS:ThermalZone,
  {921ffd93-5782-406d-bc9a-c7e0fe263410}, !- Handle
  SPACE4-1 Thermal Zone,                  !- Name
  1,                                      !- Multiplier
  2.438400269,                            !- Ceiling Height {m}
  103.311355591,                          !- Volume {m3}
  ,                                       !- Floor Area {m2}
  ,                                       !- Zone Inside Convection Algorithm