
OS:Version,
  {154ec49c-5610-4066-b0d9-f24b183ec9b1}, !- Handle
  2.0.4;                                  !- Version Identifier

OS:Site,
  {eb7c8c6d-bc5e-436d-981d-4d40cfe3b907}, !- Handle
  Pittsburgh Allegheny Co Ap_PA_USA Design_Conditions, !- Name
  40.35,                                  !- Latitude {deg}
  -79.92,                                 !- Longitude {deg}
  -5,                                     !- Time Zone {hr}
  380,                                    !- Elevation {m}
  City;                                   !- Terrain

OS:SimulationControl,
  {75202d03-2752-4721-8367-2160196eb951}, !- Handle
  Yes,                                    !- Do Zone Sizing Calculation
  Yes,                                    !- Do System Sizing Calculation
  No,                                     !- Do Plant Sizing Calculation
  No,                                     !- Run Simulation for Sizing Periods
  Yes,                                    !- Run Simulation for Weather File Run Periods
  0.04,                                   !- Loads Convergence Tolerance Value
  0.4,                                    !- Temperature Convergence Tolerance Value {deltaC}
  FullExterior,                           !- Solar Distribution
  25,                                     !- Maximum Number of Warmup Days
  6;                                      !- Minimum Number of Warmup Days

OS:WindowMaterial:Gas,
  {7cf7445f-c2cb-4b28-81e1-3ef4287456ac}, !- Handle
  AIR 6MM,                                !- Name
  Air,                                    !- Gas Type
  0.0063;                                 !- Thickness {m}

OS:Output:Variable,
  {7f1235c3-52e8-42c8-b70f-6662c3de8280}, !- Handle
  {d551eed6-d286-42b3-b3e5-04c213e4c076}, !- Name
  VAV SYS 1 OUTLET NODE,                  !- Key Value
  System Node Mass Flow Rate,             !- Variable Name
  timestep;                               !- Reporting Frequency

OS:Schedule:Compact,
  {ea462365-9a6a-45ce-86b2-b149e5148a0e}, !- Handle
  LIGHTS-1,                               !- Name
  {2ea80205-ff1b-431b-a598-61e7e2eeb6e5}, !- Schedule Type Limits Name
  Through: 12/31,                         !- Field 1
  For: AllDays,                           !- Field 2
  Until: 8:00,                            !- Field 3
  0.05,                                   !- Field 4
  Until: 18:00,                           !- Field 5
  1.00,                                   !- Field 6
  Until: 24:00,                           !- Field 7
  0.05;                                   !- Field 8

OS:ScheduleTypeLimits,
  {2ea80205-ff1b-431b-a598-61e7e2eeb6e5}, !- Handle
  Fraction,                               !- Name
  0,                                      !- Lower Limit Value
  1,                                      !- Upper Limit Value
  CONTINUOUS;                             !- Numeric Type

OS:Construction,
  {d9c0f7d7-c534-4b88-9509-1ed7ed4c9801}, !- Handle
  Dbl LoE (e2=.1) Clr 6mm/6mm Air,        !- Name
  {23fe1172-f0d7-4dbd-9491-ef0b81c41342}, !- Surface Rendering Name
  {04baa790-9301-4ff6-8ccb-32db17dc5b7f}, !- Layer 1
  {7cf7445f-c2cb-4b28-81e1-3ef4287456ac}, !- Layer 2
  {35b007c8-f380-4ff9-a6e1-57c8a38f9b92}; !- Layer 3

OS:WindowMaterial:Glazing,
  {04baa790-9301-4ff6-8ccb-32db17dc5b7f}, !- Handle
  LoE CLEAR 6MM,                          !- Name
  Spectral,                               !- Optical Data Type
  ,                                       !- Window Glass Spectral Data Set Name
  0.006,                                  !- Thickness {m}
  0.6,                                    !- Solar Transmittance at Normal Incidence
  0.17,                                   !- Front Side Solar Reflectance at Normal Incidence
  0.22,                                   !- Back Side Solar Reflectance at Normal Incidence
  0.84,                                   !- Visible Transmittance at Normal Incidence
  0.055,                                  !- Front Side Visible Reflectance at Normal Incidence
  0.078,                                  !- Back Side Visible Reflectance at Normal Incidence
  0,                                      !- Infrared Transmittance at Normal Incidence
  0.84,                                   !- Front Side Infrared Hemispherical Emissivity
  0.1,                                    !- Back Side Infrared Hemispherical Emissivity
  0.9;                                    !- Conductivity {W/m-K}

OS:WindowMaterial:Glazing,
  {35b007c8-f380-4ff9-a6e1-57c8a38f9b92}, !- Handle
  CLEAR 6MM,                              !- Name
  Spectral,                               !- Optical Data Type
  ,                                       !- Window Glass Spectral Data Set Name
  0.006,                                  !- Thickness {m}
  0.775,                                  !- Solar Transmittance at Normal Incidence
  0.071,                                  !- Front Side Solar Reflectance at Normal Incidence
  0.071,                                  !- Back Side Solar Reflectance at Normal Incidence
  0.881,                                  !- Visible Transmittance at Normal Incidence
  0.08,                                   !- Front Side Visible Reflectance at Normal Incidence
  0.08,                                   !- Back Side Visible Reflectance at Normal Incidence
  0,                                      !- Infrared Transmittance at Normal Incidence
  0.84,                                   !- Front Side Infrared Hemispherical Emissivity
  0.84,                                   !- Back Side Infrared Hemispherical Emissivity
  0.9;                                    !- Conductivity {W/m-K}

OS:EnergyManagementSystem:Sensor,
  {42e600a9-2696-4f3a-9365-fa4b50c2d972}, !- Handle
  Count_1,                                !- Name
  SPACE1-1,                               !- Output Variable or Output Meter Index Key Name
  Zone People Occupant Count;             !- Output Variable or Output Meter Name

OS:Output:Variable,
  {2725c407-7753-4663-a471-9ef00db39371}, !- Handle
  {5ac86e40-c720-4ee2-b3b7-977cbe2ca8ad}, !- Name
  SPACE2-1 IN NODE,                       !- Key Value
  System Node Temperature,                !- Variable Name
  timestep;                               !- Reporting Frequency

OS:Output:Variable,
  {5cdc337c-5382-40fe-8174-13eec15c227e}, !- Handle
  {8517392a-4eed-46e7-af21-bf21dfc06854}, !- Name
  Mixed Air Node 1,                       !- Key Value
  System Node Mass Flow Rate,             !- Variable Name
  timestep;                               !- Reporting Frequency

OS:Output:Variable,
  {18a14517-103b-4d7e-bcde-bc27bb603f3a}, !- Handle
  {6527516b-b056-4143-b72b-e25e7fb469ce}, !- Name
  VAV SYS 1 Inlet NODE,                   !- Key Value
  System Node Mass Flow Rate,             !- Variable Name
  timestep;                               !- Reporting Frequency

OS:Output:Variable,
  {b5b1cb12-71d7-4145-82b1-81c532520145}, !- Handle
  {99594db7-c902-41a0-a629-c8f3830bd726}, !- Name
  SPACE1-1,                               !- Key Value
  Zone Thermostat Heating Setpoint Temperature, !- Variable Name
  timestep;                               !- Reporting Frequency

OS:Output:Variable,
  {fcb3c4cf-331c-4feb-882c-894f8e58ae8f}, !- Handle
  {803714fa-b0b7-4925-b494-670e51af452a}, !- Name
  SPACE4-1 IN NODE,                       !- Key Value
  System Node Mass Flow Rate,             !- Variable Name
  timestep;                               !- Reporting Frequency

OS:Output:Variable,
  {9246998b-6a18-447c-a7a2-a2b968eda464}, !- Handle
  {b7e783ab-40c5-4a2e-86e2-84b4da5b062f}, !- Name
  SPACE5-1 IN NODE,                       !- Key Value
  System Node Temperature,                !- Variable Name
  timestep;                               !- Reporting Frequency

OS:Output:Variable,
  {3e051739-29d2-4c35-aa52-fd95127cde7c}, !- Handle
  {10cff6c0-e3a1-4702-b5da-45f3efa139f6}, !- Name
  *,                                      !- Key Value
  Site Outdoor Air Relative Humidity,     !- Variable Name
  timestep;                               !- Reporting Frequency

OS:Output:Variable,
  {229a6de5-a53a-47af-9f74-36b26ba10875}, !- Handle
  {dc802153-d55e-44bb-a9e6-6924e821b9d2}, !- Name
  Outside Air Inlet Node 1,               !- Key Value
  System Node Mass Flow Rate,             !- Variable Name
  timestep;                               !- Reporting Frequency

OS:Output:Variable,
  {8a8a732b-308a-45cd-9940-770cf06505c7}, !- Handle
  {83a5f125-fd00-4539-bd03-ff6f48753b4d}, !- Name
  SPACE3-1 IN NODE,                       !- Key Value
  System Node Mass Flow Rate,             !- Variable Name
  timestep;                               !- Reporting Frequency

OS:Output:Variable,
  {e4303376-cf68-4906-83e3-5da24b288f42}, !- Handle
  {9b1d3475-e00a-4002-a6dd-74b24067bf57}, !- Name
  *,                                      !- Key Value
  Site Outdoor Air Drybulb Temperature,   !- Variable Name
  timestep;                               !- Reporting Frequency

OS:Output:Variable,
  {3f97717e-ea14-4312-9d1a-693b2d7e8ebd}, !- Handle
  {9bf7e3a0-c76d-4fdd-b845-770e126974da}, !- Name
  *,                                      !- Key Value
  Facility Total HVAC Electric Demand Power, !- Variable Name
  timestep;                               !- Reporting Frequency

OS:Output:Variable,
  {f8e4b821-37a9-4b7e-88f6-35a1afe7d984}, !- Handle
  {62fd5f26-c384-4216-9213-3f518047f978}, !- Name
  *,                                      !- Key Value
  Site Diffuse Solar Radiation Rate per Area, !- Variable Name
  timestep;                               !- Reporting Frequency

OS:Output:Variable,
  {4e829c62-3681-4787-b0ba-168ee7ddf006}, !- Handle
  {67af8211-5945-4bac-bb61-59e6a4b42441}, !- Name
  *,                                      !- Key Value
  Building Mean PPD,                      !- Variable Name
  timestep;                               !- Reporting Frequency

OS:Output:Variable,
  {470578c8-15da-41a0-9482-773102daf3e8}, !- Handle
  {940a4ded-09da-419e-9c71-49393d09228a}, !- Name
  SPACE1-1 IN NODE,                       !- Key Value
  System Node Mass Flow Rate,             !- Variable Name
  timestep;                               !- Reporting Frequency

OS:Output:Variable,
  {55479cbf-b8ec-4743-a1eb-ea1805f695e8}, !- Handle
  {22abcfc5-7358-4e8f-8b21-384bcb632017}, !- Name
  VAV SYS 1 OUTLET NODE,                  !- Key Value
  System Node Temperature,                !- Variable Name
  timestep;                               !- Reporting Frequency

OS:Output:Variable,
  {18e88ade-4728-43a7-834c-c42dd186060c}, !- Handle
  {4598d489-3e37-43db-8a55-0916b7886c56}, !- Name
  SPACE5-1 IN NODE,                       !- Key Value
  System Node Mass Flow Rate,             !- Variable Name
  timestep;                               !- Reporting Frequency

OS:Output:Variable,
  {be34cf3d-e846-4618-83c2-698da8234772}, !- Handle
  {f8a1ae02-061f-4c73-bbe0-9169efa6d0bd}, !- Name
  *,                                      !- Key Value
  Building Mean Temperature,              !- Variable Name
  timestep;                               !- Reporting Frequency

OS:Output:Variable,
  {7db8dc39-fc18-4b12-9c2c-e540a632ebb7}, !- Handle
  {6e476d01-462b-480c-809b-de6424e6d5f8}, !- Name
  SPACE1-1,                               !- Key Value
  Zone Thermostat Cooling Setpoint Temperature, !- Variable Name
  timestep;                               !- Reporting Frequency

OS:Output:Variable,
  {550a4bf5-db82-4cdd-b6f4-9ddfb87fa14e}, !- Handle
  {0ed6ef45-d8f8-4ae4-af70-96200fd99c57}, !- Name
  SPACE1-1 IN NODE,                       !- Key Value
  System Node Temperature,                !- Variable Name
  timestep;                               !- Reporting Frequency

OS:Output:Variable,
  {d9572b23-ad70-455d-9163-d53e97e7ea11}, !- Handle
  {359fc977-2a12-4656-bad4-f8d2d9b72938}, !- Name
  SPACE3-1 IN NODE,                       !- Key Value
  System Node Temperature,                !- Variable Name
  timestep;                               !- Reporting Frequency

OS:Output:Variable,
  {3ba4c22e-f6fd-4aae-bf71-72199476e333}, !- Handle
  {1bfe71ac-c394-443a-8898-3e54cf6210a1}, !- Name
  Outside Air Inlet Node 1,               !- Key Value
  System Node Temperature,                !- Variable Name
  timestep;                               !- Reporting Frequency

OS:Output:Variable,
  {599d8f44-b894-40c1-9f22-fc1049305ca6}, !- Handle
  {9e96e013-b46e-406e-81ab-32ab0cee6b34}, !- Name
  *,                                      !- Key Value
  Site Wind Direction,                    !- Variable Name
  timestep;                               !- Reporting Frequency

OS:Output:Variable,
  {231db23e-c950-4508-af4d-80fbb6809915}, !- Handle
  {44ae245b-fb48-4fdd-9494-4aba7df08e03}, !- Name
  *,                                      !- Key Value
  Building Total Occupants,               !- Variable Name
  timestep;                               !- Reporting Frequency

OS:Output:Variable,
  {9ba90d8b-705e-4490-930b-ff89fc3292c0}, !- Handle
  {635edb3f-3f67-453e-8a82-0321284f9b53}, !- Name
  SPACE2-1 IN NODE,                       !- Key Value
  System Node Mass Flow Rate,             !- Variable Name
  timestep;                               !- Reporting Frequency

OS:Output:Variable,
  {7e37bdc3-60f8-4f6e-9de8-6fadecc67b35}, !- Handle
  {43b272bd-c1b9-465c-90ba-eb3c02eb8e6f}, !- Name
  VAV SYS 1 Inlet NODE,                   !- Key Value
  System Node Temperature,                !- Variable Name
  timestep;                               !- Reporting Frequency

OS:Output:Variable,
  {b814f34b-b432-4a20-be16-8fba9b4d0583}, !- Handle
  {d3b34fdf-56f0-42b4-b30d-a4f74d06f8d2}, !- Name
  *,                                      !- Key Value
  Site Direct Solar Radiation Rate per Area, !- Variable Name
  timestep;                               !- Reporting Frequency

OS:Output:Variable,
  {96fbd552-f2c3-4d26-a09e-a116e403408b}, !- Handle
  {8175fbbb-f0a1-4a2f-8780-87427dca16de}, !- Name
  Mixed Air Node 1,                       !- Key Value
  System Node Temperature,                !- Variable Name
  timestep;                               !- Reporting Frequency

OS:Output:Variable,
  {673e97ba-3ee0-4dce-a47c-0fb567d44da9}, !- Handle
  {a009dcd8-0b3f-4950-8d52-af26bb5519ad}, !- Name
  SPACE4-1 IN NODE,                       !- Key Value
  System Node Temperature,                !- Variable Name
  timestep;                               !- Reporting Frequency

OS:Output:Variable,
  {651be47b-a1e0-425c-9af5-d48de8af78f5}, !- Handle
  {d6905cdb-e60f-421f-9938-abc9ff2e9511}, !- Name
  Main Heating Coil 1,                    !- Key Value
  Heating Coil Electric Power,            !- Variable Name
  timestep;                               !- Reporting Frequency

OS:Output:Variable,
  {beb82d4e-5a88-4709-8e01-da33f1304518}, !- Handle
  {b40d64ee-2453-4570-9cba-b4a3822e67e4}, !- Name
  *,                                      !- Key Value
  Site Wind Speed,                        !- Variable Name
  timestep;                               !- Reporting Frequency

OS:Surface,
  {1bd619ab-6e93-4051-8633-f0ce65f5c1ba}, !- Handle
  SB43,                                   !- Name
  WALL,                                   !- Surface Type
  ,                                       !- Construction Name
  {ee79e51d-9f58-4cde-8ecd-3abcbfcdbc41}, !- Space Name
  Surface,                                !- Outside Boundary Condition
  {1854aa94-7e2d-4355-8e6e-e940274a87e5}, !- Outside Boundary Condition Object
  NoSun,                                  !- Sun Exposure
  NoWind,                                 !- Wind Exposure
  0,                                      !- View Factor to Ground
  ,                                       !- Number of Vertices
  3.7, 11.6, 2.4,                         !- X,Y,Z Vertex 1 {m}
  3.7, 11.6, 0,                           !- X,Y,Z Vertex 2 {m}
  0, 15.2, 0,                             !- X,Y,Z Vertex 3 {m}
  0, 15.2, 2.4;                           !- X,Y,Z Vertex 4 {m}

OS:ThermalZone,
  {5917bf13-8be3-46b1-9558-fd777ba09696}, !- Handle
  SPACE4-1 Thermal Zone,                  !- Name
  1,                                      !- Multiplier
  2.438400269,                            !- Ceiling Height {m}
  103.311355591,                          !- Volume {m3}
  ,                                       !- Floor Area {m2}
  ,                                       !- Zone Inside Convection Algorithm
  ,                                       !- Zone Outside Convection Algorithm
  ,                                       !- Zone Conditioning Equipment List Name
  {0fc1b5c1-7755-422e-a61e-c5e4c2605355}, !- Zone Air Inlet Port List
  {e8476f8b-6a08-4bdb-9c96-a18cf14e4391}, !- Zone Air Exhaust Port List
  {16f24af5-e618-4f42-ac71-fbd8fee4b53a}, !- Zone Air Node Name
  ,                                       !- Zone Return Air Node Name
  ,                                       !- Primary Daylighting Control Name
  ,                                       !- Fraction of Zone Controlled by Primary Daylighting Control
  ,                                       !- Secondary Daylighting Control Name
  ,                                       !- Fraction of Zone Controlled by Secondary Daylighting Control
  ,                                       !- Illuminance Map Name
  {ae344624-8f1f-4faf-9939-2d2b4b3a2df7}, !- Group Rendering Name
  {8cf25d1f-9a65-472a-b17d-564ba68a0bcd}, !- Thermostat Name
  No;                                     !- Use Ideal Air Loads

OS:Node,
  {36bb3f69-b891-4df3-b916-7af4073ce0e6}, !- Handle
  {f95c4968-83a0-470e-826e-7843f85f6e47}, !- Name
  {16f24af5-e618-4f42-ac71-fbd8fee4b53a}, !- Inlet Port
  ;                                       !- Outlet Port

OS:Connection,
  {16f24af5-e618-4f42-ac71-fbd8fee4b53a}, !- Handle
  {d99b8cd5-e826-4b79-9d4e-a04c1a8b2657}, !- Name
  {5917bf13-8be3-46b1-9558-fd777ba09696}, !- Source Object
  11,                                     !- Outlet Port
  {36bb3f69-b891-4df3-b916-7af4073ce0e6}, !- Target Object
  2;                                      !- Inlet Port

OS:PortList,
  {0fc1b5c1-7755-422e-a61e-c5e4c2605355}, !- Handle
  {269c090c-ac25-4384-9844-aeca149b497b}, !- Name
  {5917bf13-8be3-46b1-9558-fd777ba09696}; !- HVAC Component

OS:PortList,
  {e8476f8b-6a08-4bdb-9c96-a18cf14e4391}, !- Handle
  {a042bbc6-c135-43b3-a0e8-d0b08acfaeb2}, !- Name
  {5917bf13-8be3-46b1-9558-fd777ba09696}; !- HVAC Component

OS:Sizing:Zone,
  {819f381f-116c-4891-a9e1-8d760f36a7fb}, !- Handle
  {5917bf13-8be3-46b1-9558-fd777ba09696}, !- Zone or ZoneList Name
  SupplyAirTemperature,                   !- Zone Cooling Design Supply Air Temperature Input Method
  16,                                     !- Zone Cooling Design Supply Air Temperature {C}
  11.11,                                  !- Zone Cooling Design Supply Air Temperature Difference {deltaC}
  SupplyAirTemperature,                   !- Zone Heating Design Supply Air Temperature Input Method
  35,                                     !- Zone Heating Design Supply Air Temperature {C}
  11.11,                                  !- Zone Heating Design Supply Air Temperature Difference {deltaC}
  0.0085,                                 !- Zone Cooling Design Supply Air Humidity Ratio {kg-H2O/kg-air}
  0.004,                                  !- Zone Heating Design Supply Air Humidity Ratio {kg-H2O/kg-air}
  0,                                      !- Zone Heating Sizing Factor
  0,                                      !- Zone Cooling Sizing Factor
  DesignDay,                              !- Cooling Design Air Flow Method
  0,                                      !- Cooling Design Air Flow Rate {m3/s}
  ,                                       !- Cooling Minimum Air Flow per Zone Floor Area {m3/s-m2}
  ,                                       !- Cooling Minimum Air Flow {m3/s}
  ,                                       !- Cooling Minimum Air Flow Fraction
  DesignDay,                              !- Heating Design Air Flow Method
  0,                                      !- Heating Design Air Flow Rate {m3/s}
  ,                                       !- Heating Maximum Air Flow per Zone Floor Area {m3/s-m2}
  ,                                       !- Heating Maximum Air Flow {m3/s}
  ,                                       !- Heating Maximum Air Flow Fraction
  ,                                       !- Design Zone Air Distribution Effectiveness in Cooling Mode
  ,                                       !- Design Zone Air Distribution Effectiveness in Heating Mode
  No,                                     !- Account for Dedicated Outdoor Air System
  NeutralSupplyAir,                       !- Dedicated Outdoor Air System Control Strategy
  autosize,                               !- Dedicated Outdoor Air Low Setpoint Temperature for Design {C}
  autosize;                               !- Dedicated Outdoor Air High Setpoint Temperature for Design {C}

OS:ZoneHVAC:EquipmentList,
  {18914000-163d-4404-8fef-b35110518d79}, !- Handle
  {f207eeb0-a201-489b-b181-79d362ecb1e4}, !- Name
  {5917bf13-8be3-46b1-9558-fd777ba09696}; !- Thermal Zone

OS:Space,
  {ee79e51d-9f58-4cde-8ecd-3abcbfcdbc41}, !- Handle
  SPACE4-1,                               !- Name
  ,                                       !- Space Type Name
  ,                                       !- Default Construction Set Name
  ,                                       !- Default Schedule Set Name
  0,                                      !- Direction of Relative North {deg}
  0,                                      !- X Origin {m}
  0,                                      !- Y Origin {m}
  0,                                      !- Z Origin {m}
  ,                                       !- Building Story Name
  {5917bf13-8be3-46b1-9558-fd777ba09696}, !- Thermal Zone Name
  ,                                       !- Part of Total Floor Area
  {e73c1847-eb89-4289-99e0-6fb66385fb39}; !- Design Specification Outdoor Air Object Name

OS:ThermostatSetpoint:DualSetpoint,
  {8cf25d1f-9a65-472a-b17d-564ba68a0bcd}, !- Handle
  {a03ce0ba-ce7f-40ea-8f20-24d105fa3fb5}, !- Name
  {28d63211-e26c-45bb-b406-1a2d7ff23408}, !- Heating Setpoint Temperature Schedule Name
  {593b225d-2d6c-4841-a04e-6a91927b120e}; !- Cooling Setpoint Temperature Schedule Name

OS:Schedule:Compact,
  {28d63211-e26c-45bb-b406-1a2d7ff23408}, !- Handle
  Htg-SetP-Sch,                           !- Name
  {8737ed57-8c19-4d72-aa10-2fc34d5c2c49}, !- Schedule Type Limits Name
  Through: 12/31,                         !- Field 1
  For: SummerDesignDay,                   !- Field 2
  Until: 24:00,                           !- Field 3
  12.8,                                   !- Field 4
  For: WinterDesignDay,                   !- Field 5
  Until: 24:00,                           !- Field 6
  21.1,                                   !- Field 7
  For: AllOtherDays,                      !- Field 8
  Until: 7:00,                            !- Field 9
  12.8,                                   !- Field 10
  Until: 18:00,                           !- Field 11
  21.1,                                   !- Field 12
  Until: 24:00,                           !- Field 13
  12.8;                                   !- Field 14

OS:ScheduleTypeLimits,
  {8737ed57-8c19-4d72-aa10-2fc34d5c2c49}, !- Handle
  Temperature,                            !- Name
  -60,                                    !- Lower Limit Value
  200,                                    !- Upper Limit Value
  CONTINUOUS,                             !- Numeric Type
  Temperature;                            !- Unit Type

OS:Schedule:Compact,
  {593b225d-2d6c-4841-a04e-6a91927b120e}, !- Handle
  Clg-SetP-Sch,                           !- Name
  {8737ed57-8c19-4d72-aa10-2fc34d5c2c49}, !- Schedule Type Limits Name
  Through: 12/31,                         !- Field 1
  For: SummerDesignDay,                   !- Field 2
  Until: 24:00,                           !- Field 3
  23.9,                                   !- Field 4
  For: WinterDesignDay,                   !- Field 5
  Until: 24:00,                           !- Field 6
  40.0,                                   !- Field 7
  For: AllOtherDays,                      !- Field 8
  Until: 7:00,                            !- Field 9
  40.0,                                   !- Field 10
  Until: 18:00,                           !- Field 11
  23.9,                                   !- Field 12
  Until: 24:00,                           !- Field 13
  40.0;                                   !- Field 14

OS:SubSurface,
  {cae37574-c437-43f7-b87e-d5f42c8bdf84}, !- Handle
  WR-1,                                   !- Name
  FixedWindow,                            !- Sub Surface Type
  {51f66381-8ce7-443a-87fa-45bc9882ac14}, !- Construction Name
  {d333eba3-a4f5-4664-87cd-c2cb52f1f0f2}, !- Surface Name
  ,                                       !- Outside Boundary Condition Object
  0.5,                                    !- View Factor to Ground
  ,                                       !- Shading Control Name
  ,                                       !- Frame and Divider Name
  1,                                      !- Multiplier
  ,                                       !- Number of Vertices
  30.5, 3.8, 2.1,                         !- X,Y,Z Vertex 1 {m}
  30.5, 3.8, 0.9,                         !- X,Y,Z Vertex 2 {m}
  30.5, 11.4, 0.9,                        !- X,Y,Z Vertex 3 {m}
  30.5, 11.4, 2.1;                        !- X,Y,Z Vertex 4 {m}

OS:Construction,
  {51f66381-8ce7-443a-87fa-45bc9882ac14}, !- Handle
  Dbl Clr 3mm/13mm Air,                   !- Name
  {83c08620-b086-4c36-aac3-aeed79f191b7}, !- Surface Rendering Name
  {c1ae8b19-25b2-43d6-8695-4b6ce8fdeca9}, !- Layer 1
  {f338393d-464c-49a1-acfd-79e0a4e519e1}, !- Layer 2
  {c1ae8b19-25b2-43d6-8695-4b6ce8fdeca9}; !- Layer 3

OS:WindowMaterial:Glazing,
  {c1ae8b19-25b2-43d6-8695-4b6ce8fdeca9}, !- Handle
  CLEAR 3MM,                              !- Name
  Spectral,                               !- Optical Data Type
  ,                                       !- Window Glass Spectral Data Set Name
  0.003,                                  !- Thickness {m}
  0.837,                                  !- Solar Transmittance at Normal Incidence
  0.075,                                  !- Front Side Solar Reflectance at Normal Incidence
  0.075,                                  !- Back Side Solar Reflectance at Normal Incidence
  0.898,                                  !- Visible Transmittance at Normal Incidence
  0.081,                                  !- Front Side Visible Reflectance at Normal Incidence
  0.081,                                  !- Back Side Visible Reflectance at Normal Incidence
  0,                                      !- Infrared Transmittance at Normal Incidence
  0.84,                                   !- Front Side Infrared Hemispherical Emissivity
  0.84,                                   !- Back Side Infrared Hemispherical Emissivity
  0.9;                                    !- Conductivity {W/m-K}

OS:WindowMaterial:Gas,
  {f338393d-464c-49a1-acfd-79e0a4e519e1}, !- Handle
  AIR 13MM,                               !- Name
  Air,                                    !- Gas Type
  0.0127;                                 !- Thickness {m}

OS:Surface,
  {d333eba3-a4f5-4664-87cd-c2cb52f1f0f2}, !- Handle
  RIGHT-1,                                !- Name
  WALL,                                   !- Surface Type
  {54aa0628-ae9e-463e-9f33-3fe83513f926}, !- Construction Name
  {37512211-be78-4831-a454-7de252f0a071}, !- Space Name
  Outdoors,                               !- Outside Boundary Condition
  ,                                       !- Outside Boundary Condition Object
  SunExposed,                             !- Sun Exposure
  WindExposed,                            !- Wind Exposure
  0.5,                                    !- View Factor to Ground
  ,                                       !- Number of Vertices
  30.5, 0, 2.4,                           !- X,Y,Z Vertex 1 {m}
  30.5, 0, 0,                             !- X,Y,Z Vertex 2 {m}
  30.5, 15.2, 0,                          !- X,Y,Z Vertex 3 {m}
  30.5, 15.2, 2.4;                        !- X,Y,Z Vertex 4 {m}

OS:Construction,
  {54aa0628-ae9e-463e-9f33-3fe83513f926}, !- Handle
  WALL-1,                                 !- Name
  {254037f2-3e88-458c-984f-94f6b16d4795}, !- Surface Rendering Name
  {b7252bb0-d6d4-4ba5-888a-be4ac5d78422}, !- Layer 1
  {657dcd6a-4d17-43a1-b133-087548bada68}, !- Layer 2
  {8ddea4cc-87a8-4b43-850e-3bf2f8ada8ad}, !- Layer 3
  {014d428b-1de1-494f-b18c-ef99581e2915}; !- Layer 4

OS:Material,
  {b7252bb0-d6d4-4ba5-888a-be4ac5d78422}, !- Handle
  WD01,                                   !- Name
  MediumSmooth,                           !- Roughness
  0.019099999,                            !- Thickness {m}
  0.115,                                  !- Conductivity {W/m-K}
  513,                                    !- Density {kg/m3}
  1381,                                   !- Specific Heat {J/kg-K}
  0.9,                                    !- Thermal Absorptance
  0.78,                                   !- Solar Absorptance
  0.78;                                   !- Visible Absorptance

OS:Material,
  {657dcd6a-4d17-43a1-b133-087548bada68}, !- Handle
  PW03,                                   !- Name
  MediumSmooth,                           !- Roughness
  0.0127,                                 !- Thickness {m}
  0.115,                                  !- Conductivity {W/m-K}
  545,                                    !- Density {kg/m3}
  1213,                                   !- Specific Heat {J/kg-K}
  0.9,                                    !- Thermal Absorptance
  0.78,                                   !- Solar Absorptance
  0.78;                                   !- Visible Absorptance

OS:Material,
  {8ddea4cc-87a8-4b43-850e-3bf2f8ada8ad}, !- Handle