
OS:Version,
  {fa40a9e8-9751-4ab3-9522-83529ea2592d}, !- Handle
  2.0.4;                                  !- Version Identifier

OS:Site,
  {69fbf71c-edf4-42de-aeda-9fe96ffd8557}, !- Handle
  TAIPEI,                                 !- Name
  25.07,                                  !- Latitude {deg}
  121.55,                                 !- Longitude {deg}
  8,                                      !- Time Zone {hr}
  6,                                      !- Elevation {m}
  ;                                       !- Terrain

OS:SimulationControl,
  {7a4484ed-9d35-48f1-96bf-eab6980bd13b}, !- Handle
  Yes,                                    !- Do Zone Sizing Calculation
  Yes,                                    !- Do System Sizing Calculation
  No,                                     !- Do Plant Sizing Calculation
  Yes,                                    !- Run Simulation for Sizing Periods
  Yes,                                    !- Run Simulation for Weather File Run Periods
  ,                                       !- Loads Convergence Tolerance Value
  ,                                       !- Temperature Convergence Tolerance Value {deltaC}
  ;                                       !- Solar Distribution

OS:Schedule:Day,
  {c128b9bd-6109-40dc-bea0-6d9573aa46a4}, !- Handle
  Large Office Bldg Occ Rule 2 Day Schedule, !- Name
  {d362a730-58e5-4cf4-98ac-d6eb12d38591}, !- Schedule Type Limits Name
  ,                                       !- Interpolate to Timestep
  6,                                      !- Hour 1
  0,                                      !- Minute 1
  0,                                      !- Value Until Time 1
  8,                                      !- Hour 2
  0,                                      !- Minute 2
  0.1,                                    !- Value Until Time 2
  14,                                     !- Hour 3
  0,                                      !- Minute 3
  0.5,                                    !- Value Until Time 3
  17,                                     !- Hour 4
  0,                                      !- Minute 4
  0.1,                                    !- Value Until Time 4
  24,                                     !- Hour 5
  0,                                      !- Minute 5
  0;                                      !- Value Until Time 5

OS:ScheduleTypeLimits,
  {d362a730-58e5-4cf4-98ac-d6eb12d38591}, !- Handle
  Fractional,                             !- Name
  0,                                      !- Lower Limit Value
  1,                                      !- Upper Limit Value
  Continuous;                             !- Numeric Type

OS:Curve:Quadratic,
  {45e48ca7-bb02-410e-ad77-c4dc9e039ccb}, !- Handle
  OS:Curve:Quadratic 1,                   !- Name
  0.77136,                                !- Coefficient1 Constant
  0.34053,                                !- Coefficient2 x
  -0.11088,                               !- Coefficient3 x**2
  0.75918,                                !- Minimum Value of x
  1.13877;                                !- Maximum Value of x

OS:Schedule:Day,
  {98ec6c0f-4fc2-4968-bc5e-616022a05feb}, !- Handle
  Medium Office Activity Default Schedule, !- Name
  {9d6961e7-e305-43f3-bd81-077c52855809}, !- Schedule Type Limits Name
  ,                                       !- Interpolate to Timestep
  24,                                     !- Hour 1
  0,                                      !- Minute 1
  120;                                    !- Value Until Time 1

OS:ScheduleTypeLimits,
  {9d6961e7-e305-43f3-bd81-077c52855809}, !- Handle
  ActivityLevel 13,                       !- Name
  0,                                      !- Lower Limit Value
  ,                                       !- Upper Limit Value
  Continuous,                             !- Numeric Type
  activitylevel;                          !- Unit Type

OS:Schedule:Constant,
  {d83ae62f-d909-4c89-b329-d88bd5ef02d3}, !- Handle
  {94527e3f-8168-495d-a9b1-cb1dcd9d7ebb}, !- Name
  ,                                       !- Schedule Type Limits Name
  1;                                      !- Value

OS:Schedule:Day,
  {a2843290-3b85-4d65-89e0-fd1f5eb00678}, !- Handle
  Large Office Bldg Occ Winter Design Day, !- Name
  {d362a730-58e5-4cf4-98ac-d6eb12d38591}, !- Schedule Type Limits Name
  ,                                       !- Interpolate to Timestep
  24,                                     !- Hour 1
  0,                                      !- Minute 1
  0;                                      !- Value Until Time 1

OS:ScheduleTypeLimits,
  {111e717f-9b62-4452-9cb3-3ff3d815bb71}, !- Handle
  LinearPowerDensity,                     !- Name
  0,                                      !- Lower Limit Value
  ,                                       !- Upper Limit Value
  Continuous,                             !- Numeric Type
  linearpowerdensity;                     !- Unit Type

OS:Construction,
  {c4a00a3d-ccfd-478f-8a37-f0950f10a506}, !- Handle
  ASHRAE 189.1-2009 ExtWindow ClimateZone 1, !- Name
  {1a670b67-15e9-4b28-9ac6-5c6f6c71abc8}, !- Surface Rendering Name
  {775f3b3b-a905-4f2e-bd79-d763f00e9d2e}; !- Layer 1

OS:WindowMaterial:Glazing,
  {775f3b3b-a905-4f2e-bd79-d763f00e9d2e}, !- Handle
  Theoretical Glass [167],                !- Name
  Spectral,                               !- Optical Data Type
  ,                                       !- Window Glass Spectral Data Set Name
  0.00299999999999999,                    !- Thickness {m}
  0.2374,                                 !- Solar Transmittance at Normal Incidence
  0.7126,                                 !- Front Side Solar Reflectance at Normal Incidence
  0,                                      !- Back Side Solar Reflectance at Normal Incidence
  0.2512,                                 !- Visible Transmittance at Normal Incidence
  0.6988,                                 !- Front Side Visible Reflectance at Normal Incidence
  0,                                      !- Back Side Visible Reflectance at Normal Incidence
  0,                                      !- Infrared Transmittance at Normal Incidence
  0.985,                                  !- Front Side Infrared Hemispherical Emissivity
  0.985,                                  !- Back Side Infrared Hemispherical Emissivity
  2.1073,                                 !- Conductivity {W/m-K}
  1,                                      !- Dirt Correction Factor for Solar and Visible Transmittance
  No;                                     !- Solar Diffusing

OS:Schedule:Day,
  {88db3845-5253-4045-8ea9-07935f13b53f}, !- Handle
  Office Activity Summer Design Day,      !- Name
  {d687fe1c-6cef-4f7c-a59d-e4057c309ce6}, !- Schedule Type Limits Name
  ,                                       !- Interpolate to Timestep
  24,                                     !- Hour 1
  0,                                      !- Minute 1
  132;                                    !- Value Until Time 1

OS:ScheduleTypeLimits,
  {d687fe1c-6cef-4f7c-a59d-e4057c309ce6}, !- Handle
  ActivityLevel,                          !- Name
  0,                                      !- Lower Limit Value
  ,                                       !- Upper Limit Value
  Continuous,                             !- Numeric Type
  activitylevel;                          !- Unit Type

OS:Material,
  {aa4d0f87-e2c4-4c47-a919-f6518c33082e}, !- Handle
  Wall Insulation [36],                   !- Name
  MediumRough,                            !- Roughness
  0.0565999999999999,                     !- Thickness {m}
  0.0432,                                 !- Conductivity {W/m-K}
  91,                                     !- Density {kg/m3}
  836.999999999999,                       !- Specific Heat {J/kg-K}
  0.9,                                    !- Thermal Absorptance
  0.5,                                    !- Solar Absorptance
  0.5;                                    !- Visible Absorptance

OS:Schedule:Year,
  {2a8043be-4155-405b-8e7a-312a49a5e182}, !- Handle
  Schedule Ruleset 1,                     !- Name
  {7bbd1ee2-91d8-4ded-b4d4-68d9061f56bc}, !- Schedule Type Limits Name
  12,                                     !- Month 1
  31,                                     !- Day 1
  {84725bfc-7507-4893-806e-5bbe32eef93e}; !- Week Schedule Until Date 1

OS:ScheduleTypeLimits,
  {7bbd1ee2-91d8-4ded-b4d4-68d9061f56bc}, !- Handle
  OnOff,                                  !- Name
  0,                                      !- Lower Limit Value
  1,                                      !- Upper Limit Value
  Discrete,                               !- Numeric Type
  availability;                           !- Unit Type

OS:Schedule:Week,
  {84725bfc-7507-4893-806e-5bbe32eef93e}, !- Handle
  Schedule:Week:Daily {7d9fc52b-3218-42b5-987d-8ec43cfd6ba4}, !- Name
  ,                                       !- Schedule Rendering Name
  {524afc46-2475-456b-ad8d-b8edc4186145}, !- Sunday Schedule:Day Name
  {524afc46-2475-456b-ad8d-b8edc4186145}, !- Monday Schedule:Day Name
  {524afc46-2475-456b-ad8d-b8edc4186145}, !- Tuesday Schedule:Day Name
  {524afc46-2475-456b-ad8d-b8edc4186145}, !- Wednesday Schedule:Day Name
  {524afc46-2475-456b-ad8d-b8edc4186145}, !- Thursday Schedule:Day Name
  {524afc46-2475-456b-ad8d-b8edc4186145}, !- Friday Schedule:Day Name
  {524afc46-2475-456b-ad8d-b8edc4186145}, !- Saturday Schedule:Day Name
  {524afc46-2475-456b-ad8d-b8edc4186145}, !- Holiday Schedule:Day Name
  {524afc46-2475-456b-ad8d-b8edc4186145}, !- SummerDesignDay Schedule:Day Name
  {524afc46-2475-456b-ad8d-b8edc4186145}, !- WinterDesignDay Schedule:Day Name
  {524afc46-2475-456b-ad8d-b8edc4186145}, !- CustomDay1 Schedule:Day Name
  {524afc46-2475-456b-ad8d-b8edc4186145}; !- CustomDay2 Schedule:Day Name

OS:Schedule:Day,
  {524afc46-2475-456b-ad8d-b8edc4186145}, !- Handle
  Schedule Day 1,                         !- Name
  {7bbd1ee2-91d8-4ded-b4d4-68d9061f56bc}, !- Schedule Type Limits Name
  ,                                       !- Interpolate to Timestep
  24,                                     !- Hour 1
  0,                                      !- Minute 1
  1;                                      !- Value Until Time 1

OS:YearDescription,
  {40b06dbe-cf26-44a3-ae24-6a1bdea31443}; !- Handle

OS:Schedule:Day,
  {fd9aeb1a-9c47-4efd-be27-dfeaeaf51300}, !- Handle
  Office Bldg Occ Rule 1 Day Schedule 1,  !- Name
  {5ec30d2c-c3de-48e3-b321-657e1f2b5225}, !- Schedule Type Limits Name
  ,                                       !- Interpolate to Timestep
  24,                                     !- Hour 1
  0,                                      !- Minute 1
  0;                                      !- Value Until Time 1

OS:ScheduleTypeLimits,
  {5ec30d2c-c3de-48e3-b321-657e1f2b5225}, !- Handle
  Fraction,                               !- Name
  0,                                      !- Lower Limit Value
  1,                                      !- Upper Limit Value
  CONTINUOUS;                             !- Numeric Type

OS:Material,
  {ab5562b3-c6ae-4ebd-b6bd-17f4833a3d94}, !- Handle
  F16 Acoustic tile,                      !- Name
  MediumSmooth,                           !- Roughness
  0.0191,                                 !- Thickness {m}
  0.06,                                   !- Conductivity {W/m-K}
  368,                                    !- Density {kg/m3}
  590.000000000002,                       !- Specific Heat {J/kg-K}
  0.9,                                    !- Thermal Absorptance
  0.3,                                    !- Solar Absorptance
  0.3;                                    !- Visible Absorptance

OS:ScheduleTypeLimits,
  {eb87f224-8433-438d-93ba-7aca3a0cdd04}, !- Handle
  Temperature 11,                         !- Name
  ,                                       !- Lower Limit Value
  ,                                       !- Upper Limit Value
  Continuous,                             !- Numeric Type
  temperature;                            !- Unit Type

OS:Schedule:Day,
  {92ad2109-9cdf-4154-8716-896dd030d4e0}, !- Handle
  Large Office Activity Winter Design Day, !- Name
  {89c26da5-2f6f-4af3-9ca6-7a396a628bed}, !- Schedule Type Limits Name
  ,                                       !- Interpolate to Timestep
  24,                                     !- Hour 1
  0,                                      !- Minute 1
  120;                                    !- Value Until Time 1

OS:ScheduleTypeLimits,
  {89c26da5-2f6f-4af3-9ca6-7a396a628bed}, !- Handle
  ActivityLevel 5,                        !- Name
  0,                                      !- Lower Limit Value
  ,                                       !- Upper Limit Value
  Continuous,                             !- Numeric Type
  activitylevel;                          !- Unit Type

OS:Schedule:Day,
  {69fab039-9a65-48ef-a1f4-e7ae6923ca57}, !- Handle
  Office Bldg Occ Winter Design Day,      !- Name
  {5ec30d2c-c3de-48e3-b321-657e1f2b5225}, !- Schedule Type Limits Name
  ,                                       !- Interpolate to Timestep
  24,                                     !- Hour 1
  0,                                      !- Minute 1
  0;                                      !- Value Until Time 1

OS:Surface,
  {7db8790e-de26-4b5f-812b-8199e2af15b2}, !- Handle
  Surface 2,                              !- Name
  Floor,                                  !- Surface Type
  {e2c6d090-88d0-4d81-a8dd-32e47899450a}, !- Construction Name
  {2b7ddad9-5f2f-477d-966a-6c8aa9a23c3e}, !- Space Name
  Ground,                                 !- Outside Boundary Condition
  ,                                       !- Outside Boundary Condition Object
  NoSun,                                  !- Sun Exposure
  NoWind,                                 !- Wind Exposure
  ,                                       !- View Factor to Ground
  ,                                       !- Number of Vertices
  0.0899999999999997, 5.29, 0,            !- X,Y,Z Vertex 1 {m}
  0.0899999999999997, 0, 0,               !- X,Y,Z Vertex 2 {m}
  0, 0, 0,                                !- X,Y,Z Vertex 3 {m}
  0, -2.35, 0,                            !- X,Y,Z Vertex 4 {m}
  -3.41, -2.35, 0,                        !- X,Y,Z Vertex 5 {m}
  -3.41, -0.52, 0,                        !- X,Y,Z Vertex 6 {m}
  -3.29, -0.52, 0,                        !- X,Y,Z Vertex 7 {m}
  -3.29, -0.00999999999999989, 0,         !- X,Y,Z Vertex 8 {m}
  -3.41, -0.00999999999999989, 0,         !- X,Y,Z Vertex 9 {m}
  -3.41, 4.9, 0,                          !- X,Y,Z Vertex 10 {m}
  -2.79, 4.9, 0,                          !- X,Y,Z Vertex 11 {m}
  -2.79, 5.29, 0;                         !- X,Y,Z Vertex 12 {m}

OS:Construction,
  {e2c6d090-88d0-4d81-a8dd-32e47899450a}, !- Handle
  ASHRAE 189.1-2009 ExtWall Mass ClimateZone 1, !- Name
  {a9c2a5c5-a4c7-4cda-8595-025de948dafc}, !- Surface Rendering Name
  {9c2352b5-53d5-4ac3-bd04-7fd4751b3927}, !- Layer 1
  {aa19a1ab-4a83-4bf6-acaa-ffeeab71d95b}, !- Layer 2
  {a9eb2ba9-9fd1-4e32-809f-2dab8e0ce4fa}, !- Layer 3
  {3188baad-e914-42a2-8e9e-6c71a38d537f}; !- Layer 4

OS:Material,
  {9c2352b5-53d5-4ac3-bd04-7fd4751b3927}, !- Handle
  1IN Stucco,                             !- Name
  Smooth,                                 !- Roughness
  0.0253,                                 !- Thickness {m}
  0.691799999999999,                      !- Conductivity {W/m-K}
  1858,                                   !- Density {kg/m3}
  836.999999999999,                       !- Specific Heat {J/kg-K}
  0.9,                                    !- Thermal Absorptance
  0.92,                                   !- Solar Absorptance
  0.92;                                   !- Visible Absorptance

OS:Material,
  {aa19a1ab-4a83-4bf6-acaa-ffeeab71d95b}, !- Handle
  8IN Concrete HW,                        !- Name
  MediumRough,                            !- Roughness
  0.2033,                                 !- Thickness {m}
  1.72959999999999,                       !- Conductivity {W/m-K}
  2242.99999999999,                       !- Density {kg/m3}
  836.999999999999,                       !- Specific Heat {J/kg-K}
  0.9,                                    !- Thermal Absorptance
  0.65,                                   !- Solar Absorptance
  0.65;                                   !- Visible Absorptance

OS:Material,
  {a9eb2ba9-9fd1-4e32-809f-2dab8e0ce4fa}, !- Handle
  Wall Insulation [31],                   !- Name
  MediumRough,                            !- Roughness
  0.0337000000000001,                     !- Thickness {m}
  0.0432,                                 !- Conductivity {W/m-K}
  91,                                     !- Density {kg/m3}
  836.999999999999,                       !- Specific Heat {J/kg-K}
  0.9,                                    !- Thermal Absorptance
  0.5,                                    !- Solar Absorptance
  0.5;                                    !- Visible Absorptance

OS:Material,
  {3188baad-e914-42a2-8e9e-6c71a38d537f}, !- Handle
  1/2IN Gypsum,                           !- Name
  Smooth,                                 !- Roughness
  0.0127,                                 !- Thickness {m}
  0.16,                                   !- Conductivity {W/m-K}
  784.9,                                  !- Density {kg/m3}
  830.000000000001,                       !- Specific Heat {J/kg-K}
  0.9,                                    !- Thermal Absorptance
  0.4,                                    !- Solar Absorptance
  0.4;                                    !- Visible Absorptance

OS:ThermalZone,
  {57bb8cb5-7984-434f-a89f-b189be368af2}, !- Handle
  Thermal Zone 1 Thermal Zone,            !- Name
  ,                                       !- Multiplier
  ,                                       !- Ceiling Height {m}
  ,                                       !- Volume {m3}
  ,                                       !- Floor Area {m2}
  ,                                       !- Zone Inside Convection Algorithm
  ,                                       !- Zone Outside Convection Algorithm
  ,                                       !- Zone Conditioning Equipment List Name
  {2fee6e5e-3159-4529-959b-199568e969d2}, !- Zone Air Inlet Port List
  {e6ae097d-e27e-45ae-8188-c4265ab2abce}, !- Zone Air Exhaust Port List
  {ca038902-5358-4657-b1be-c546dff61b75}, !- Zone Air Node Name
  ,                                       !- Zone Return Air Node Name
  ,                                       !- Primary Daylighting Control Name
  ,                                       !- Fraction of Zone Controlled by Primary Daylighting Control
  ,                                       !- Secondary Daylighting Control Name
  ,                                       !- Fraction of Zone Controlled by Secondary Daylighting Control
  ,                                       !- Illuminance Map Name
  {f811cead-2775-4417-982b-81149d0ea347}, !- Group Rendering Name
  ,                                       !- Thermostat Name
  No;                                     !- Use Ideal Air Loads

OS:Node,
  {3a0b4a0c-4710-4c4c-9857-a9776b81da74}, !- Handle
  {9507be7c-ea21-46e9-ab88-b09c3e647997}, !- Name
  {ca038902-5358-4657-b1be-c546dff61b75}, !- Inlet Port
  ;                                       !- Outlet Port

OS:Connection,
  {ca038902-5358-4657-b1be-c546dff61b75}, !- Handle
  {c3bb2a0c-fa8a-46d1-b99f-d4e91412a71e}, !- Name
  {57bb8cb5-7984-434f-a89f-b189be368af2}, !- Source Object
  11,                                     !- Outlet Port
  {3a0b4a0c-4710-4c4c-9857-a9776b81da74}, !- Target Object
  2;                                      !- Inlet Port

OS:PortList,
  {2fee6e5e-3159-4529-959b-199568e969d2}, !- Handle
  {df5751be-5625-4a2c-b84e-7451be7afd76}, !- Name
  {57bb8cb5-7984-434f-a89f-b189be368af2}; !- HVAC Component

OS:PortList,
  {e6ae097d-e27e-45ae-8188-c4265ab2abce}, !- Handle
  {71ac098f-f892-42bc-ac0d-222474f0f4b8}, !- Name
  {57bb8cb5-7984-434f-a89f-b189be368af2}; !- HVAC Component

OS:Sizing:Zone,
  {5018a676-4386-412d-92e8-b6b6be94f2f2}, !- Handle
  {57bb8cb5-7984-434f-a89f-b189be368af2}, !- Zone or ZoneList Name
  SupplyAirTemperature,                   !- Zone Cooling Design Supply Air Temperature Input Method
  14,                                     !- Zone Cooling Design Supply Air Temperature {C}
  11.11,                                  !- Zone Cooling Design Supply Air Temperature Difference {deltaC}
  SupplyAirTemperature,                   !- Zone Heating Design Supply Air Temperature Input Method
  40,                                     !- Zone Heating Design Supply Air Temperature {C}
  11.11,                                  !- Zone Heating Design Supply Air Temperature Difference {deltaC}
  0.0085,                                 !- Zone Cooling Design Supply Air Humidity Ratio {kg-H2O/kg-air}
  0.008,                                  !- Zone Heating Design Supply Air Humidity Ratio {kg-H2O/kg-air}
  ,                                       !- Zone Heating Sizing Factor
  ,                                       !- Zone Cooling Sizing Factor
  DesignDay,                              !- Cooling Design Air Flow Method
  0,                                      !- Cooling Design Air Flow Rate {m3/s}
  0.000762,                               !- Cooling Minimum Air Flow per Zone Floor Area {m3/s-m2}
  0,                                      !- Cooling Minimum Air Flow {m3/s}
  0,                                      !- Cooling Minimum Air Flow Fraction
  DesignDay,                              !- Heating Design Air Flow Method
  0,                                      !- Heating Design Air Flow Rate {m3/s}
  0.002032,                               !- Heating Maximum Air Flow per Zone Floor Area {m3/s-m2}
  0.1415762,                              !- Heating Maximum Air Flow {m3/s}
  0.3,                                    !- Heating Maximum Air Flow Fraction
  1,                                      !- Design Zone Air Distribution Effectiveness in Cooling Mode
  1,                                      !- Design Zone Air Distribution Effectiveness in Heating Mode
  No,                                     !- Account for Dedicated Outdoor Air System
  NeutralSupplyAir,                       !- Dedicated Outdoor Air System Control Strategy
  autosize,                               !- Dedicated Outdoor Air Low Setpoint Temperature for Design {C}
  autosize;                               !- Dedicated Outdoor Air High Setpoint Temperature for Design {C}

OS:ZoneHVAC:EquipmentList,
  {548b719a-9907-41f4-9cd9-0ce83d70235c}, !- Handle
  {37df9bd3-0597-4b71-8713-fdbb80b41fe5}, !- Name
  {57bb8cb5-7984-434f-a89f-b189be368af2}; !- Thermal Zone

OS:Space,
  {2b7ddad9-5f2f-477d-966a-6c8aa9a23c3e}, !- Handle
  Thermal Zone 1,                         !- Name
  ,                                       !- Space Type Name
  ,                                       !- Default Construction Set Name
  ,                                       !- Default Schedule Set Name
  -0,                                     !- Direction of Relative North {deg}
  3.40999999999999,                       !- X Origin {m}
  2.35,                                   !- Y Origin {m}
  0,                                      !- Z Origin {m}
  ,                                       !- Building Story Name
  {57bb8cb5-7984-434f-a89f-b189be368af2}, !- Thermal Zone Name
  ,                                       !- Part of Total Floor Area
  {51a4d188-a1cf-4327-b67a-c62c20208f4e}; !- Design Specification Outdoor Air Object Name

OS:SizingPeriod:DesignDay,
  {94fce4f0-a19a-40ba-8826-a23e078402f4}, !- Handle
  TAIPEI Ann Clg .4% Condns DP=>MDB,      !- Name
  30.5,                                   !- Maximum Dry-Bulb Temperature {C}
  7.2,                                    !- Daily Dry-Bulb Temperature Range {deltaC}
  27,                                     !- Humidity Indicating Conditions at Maximum Dry-Bulb
  101253,                                 !- Barometric Pressure {Pa}
  5,                                      !- Wind Speed {m/s}
  270,                                    !- Wind Direction {deg}
  0,                                      !- Sky Clearness
  0,                                      !- Rain Indicator
  0,                                      !- Snow Indicator
  21,                                     !- Day of Month
  7,                                      !- Month
  SummerDesignDay,                        !- Day Type
  0,                                      !- Daylight Saving Time Indicator
  Dewpoint,                               !- Humidity Indicating Type
  ,                                       !- Humidity Indicating Day Schedule Name
  DefaultMultipliers,                     !- Dry-Bulb Temperature Range Modifier Type
  ,                                       !- Dry-Bulb Temperature Range Modifier Schedule Name
  ASHRAETau,                              !- Solar Model Indicator
  ,                                       !- Beam Solar Day Schedule Name
  ,                                       !- Diffuse Solar Day Schedule Name
  0.538,                                  !- ASHRAE Taub {dimensionless}
  1.93;                                   !- ASHRAE Taud {dimensionless}

OS:Curve:Quadratic,
  {5d04ec66-a070-499f-9ee7-1ee5445090c2}, !- Handle
  OS:Curve:Quadratic 3,                   !- Name
  0.771,                                  !- Coefficient1 Constant
  0.229,                                  !- Coefficient2 x
  0,                                      !- Coefficient3 x**2
  0,                                      !- Minimum Value of x
  1;                                      !- Maximum Value of x

OS:ScheduleTypeLimits,
  {cfaf2297-eeb4-4850-bd6c-ff3a2bb1a5b4}, !- Handle
  Temperature 3,                          !- Name
  ,                                       !- Lower Limit Value
  ,                                       !- Upper Limit Value
  Continuous,                             !- Numeric Type
  temperature;                            !- Unit Type

OS:Schedule:Year,
  {e931946e-b7ef-4820-b507-1e30e0c36ed7}, !- Handle
  Office Bldg Light,                      !- Name
  {5ec30d2c-c3de-48e3-b321-657e1f2b5225}, !- Schedule Type Limits Name
  12,                                     !- Month 1
  31,                                     !- Day 1
  {8afed480-3457-42e0-a2d8-9ca4fbde2a23}; !- Week Schedule Until Date 1

OS:Schedule:Week,
  {8afed480-3457-42e0-a2d8-9ca4fbde2a23}, !- Handle
  Schedule:Week:Daily {c4bd40b7-25a3-4c80-bd7b-34d3d285d4d4}, !- Name
  ,                                       !- Schedule Rendering Name
  {b7abc96b-050c-4eb6-bd25-bf040d32fc2b}, !- Sunday Schedule:Day Name
  {00fbc4df-e1d8-4712-a171-e72540f188ff}, !- Monday Schedule:Day Name
  {00fbc4df-e1d8-4712-a171-e72540f188ff}, !- Tuesday Schedule:Day Name
  {00fbc4df-e1d8-4712-a171-e72540f188ff}, !- Wednesday Schedule:Day Name
  {00fbc4df-e1d8-4712-a171-e72540f188ff}, !- Thursday Schedule:Day Name
  {00fbc4df-e1d8-4712-a171-e72540f188ff}, !- Friday Schedule:Day Name
  {cf57478d-8961-4a3e-b135-11688113d028}, !- Saturday Schedule:Day Name
  {00fbc4df-e1d8-4712-a171-e72540f188ff}, !- Holiday Schedule:Day Name
  {cf888ab0-e0d2-464b-b8f0-2b8aad647a75}, !- SummerDesignDay Schedule:Day Name
  {9a20e6a5-aede-4171-a274-cb055df40951}, !- WinterDesignDay Schedule:Day Name
  {00fbc4df-e1d8-4712-a171-e72540f188ff}, !- CustomDay1 Schedule:Day Name
  {00fbc4df-e1d8-4712-a171-e72540f188ff}; !- CustomDay2 Schedule:Day Name

OS:Schedule:Day,
  {b7abc96b-050c-4eb6-bd25-bf040d32fc2b}, !- Handle
  Office Bldg Light Rule 1 Day Schedule,  !- Name
  {5ec30d2c-c3de-48e3-b321-657e1f2b5225}, !- Schedule Type Limits Name
  ,                                       !- Interpolate to Timestep
  24,                                     !- Hour 1
  0,                                      !- Minute 1
  0.05;                                   !- Value Until Time 1

OS:Schedule:Day,
  {00fbc4df-e1d8-4712-a171-e72540f188ff}, !- Handle
  Office Bldg Light Default Schedule,     !- Name
  {5ec30d2c-c3de-48e3-b321-657e1f2b5225}, !- Schedule Type Limits Name
  ,                                       !- Interpolate to Timestep
  5,                                      !- Hour 1
  0,                                      !- Minute 1
  0.05,                                   !- Value Until Time 1
  7,                                      !- Hour 2
  0,                                      !- Minute 2
  0.1,                                    !- Value Until Time 2
  8,                                      !- Hour 3
  0,                                      !- Minute 3
  0.3,                                    !- Value Until Time 3
  17,                                     !- Hour 4
  0,                                      !- Minute 4
  0.9,                                    !- Value Until Time 4
  18,                                     !- Hour 5
  0,                                      !- Minute 5
  0.7,                                    !- Value Until Time 5
  20,                                     !- Hour 6
  0,                                      !- Minute 6
  0.5,                                    !- Value Until Time 6
  22,                                     !- Hour 7
  0,                                      !- Minute 7
  0.3,                                    !- Value Until Time 7
  23,                                     !- Hour 8
  0,                                      !- Minute 8
  0.1,                                    !- Value Until Time 8
  24,                                     !- Hour 9
  0,                                      !- Minute 9
  0.05;                                   !- Value Until Time 9

OS:Schedule:Day,
  {cf57478d-8961-4a3e-b135-11688113d028}, !- Handle
  Office Bldg Light Rule 2 Day Schedule,  !- Name
  {5ec30d2c-c3de-48e3-b321-657e1f2b5225}, !- Schedule Type Limits Name