
OS:Version,
  {40e5cfc2-ca26-4bd8-893d-b3a1a52a1918}, !- Handle
  2.0.4;                                  !- Version Identifier

OS:Site,
  {7014472f-37fc-4e3d-bd5b-0c8dbbe6fb47}, !- Handle
  TAIPEI,                                 !- Name
  25.07,                                  !- Latitude {deg}
  121.55,                                 !- Longitude {deg}
  8,                                      !- Time Zone {hr}
  6,                                      !- Elevation {m}
  ;                                       !- Terrain

OS:SimulationControl,
  {af78ad64-e306-4d89-9747-6996aea963b1}, !- Handle
  Yes,                                    !- Do Zone Sizing Calculation
  Yes,                                    !- Do System Sizing Calculation
  No,                                     !- Do Plant Sizing Calculation
  Yes,                                    !- Run Simulation for Sizing Periods
  Yes,                                    !- Run Simulation for Weather File Run Periods
  ,                                       !- Loads Convergence Tolerance Value
  ,                                       !- Temperature Convergence Tolerance Value {deltaC}
  ;                                       !- Solar Distribution

OS:Schedule:Day,
  {3b04c9b4-5f73-486f-a34f-4d16f6009c88}, !- Handle
  Office Activity Summer Design Day 1,    !- Name
  {d06b429c-e95c-43f1-96c5-4fa4658e0f53}, !- Schedule Type Limits Name
  ,                                       !- Interpolate to Timestep
  24,                                     !- Hour 1
  0,                                      !- Minute 1
  132;                                    !- Value Until Time 1

OS:ScheduleTypeLimits,
  {d06b429c-e95c-43f1-96c5-4fa4658e0f53}, !- Handle
  ActivityLevel,                          !- Name
  0,                                      !- Lower Limit Value
  ,                                       !- Upper Limit Value
  Continuous,                             !- Numeric Type
  activitylevel;                          !- Unit Type

OS:Schedule:Day,
  {1480b295-d02e-4e52-8f71-9734957d7e10}, !- Handle
  Office Bldg Light Winter Design Day 3,  !- Name
  {ff817f7e-e479-41fa-b886-07f736837f8d}, !- Schedule Type Limits Name
  ,                                       !- Interpolate to Timestep
  24,                                     !- Hour 1
  0,                                      !- Minute 1
  0;                                      !- Value Until Time 1

OS:ScheduleTypeLimits,
  {ff817f7e-e479-41fa-b886-07f736837f8d}, !- Handle
  Fraction,                               !- Name
  0,                                      !- Lower Limit Value
  1,                                      !- Upper Limit Value
  CONTINUOUS;                             !- Numeric Type

OS:Surface,
  {b60997e7-43c9-4442-88d1-7e744f297959}, !- Handle
  Surface 14,                             !- Name
  Wall,                                   !- Surface Type
  {2ebd10a1-030e-49fb-af27-5b20dcc5bcd4}, !- Construction Name
  {a89ec750-1ce3-47d6-abe8-965e3cb20421}, !- Space Name
  Surface,                                !- Outside Boundary Condition
  {0357a4f3-be48-4785-a6cc-9f3d8f347e7d}, !- Outside Boundary Condition Object
  NoSun,                                  !- Sun Exposure
  NoWind,                                 !- Wind Exposure
  ,                                       !- View Factor to Ground
  ,                                       !- Number of Vertices
  0, 7.65, 2.35,                          !- X,Y,Z Vertex 1 {m}
  0, 7.65, 0,                             !- X,Y,Z Vertex 2 {m}
  0, 0, 0,                                !- X,Y,Z Vertex 3 {m}
  0, 0, 2.35;                             !- X,Y,Z Vertex 4 {m}

OS:Construction,
  {2ebd10a1-030e-49fb-af27-5b20dcc5bcd4}, !- Handle
  Interior Wall,                          !- Name
  {4bab717d-c9e2-477e-b361-ec3dffbf59e9}, !- Surface Rendering Name
  {0b6c3f71-510b-4fa9-98aa-7e19481013ea}, !- Layer 1
  {ea5ac757-04c7-4568-83bb-9f0643cbbda9}, !- Layer 2
  {0b6c3f71-510b-4fa9-98aa-7e19481013ea}; !- Layer 3

OS:Material,
  {0b6c3f71-510b-4fa9-98aa-7e19481013ea}, !- Handle
  G01a 19mm gypsum board,                 !- Name
  MediumSmooth,                           !- Roughness
  0.019,                                  !- Thickness {m}
  0.16,                                   !- Conductivity {W/m-K}
  800,                                    !- Density {kg/m3}
  1090,                                   !- Specific Heat {J/kg-K}
  0.9,                                    !- Thermal Absorptance
  0.4,                                    !- Solar Absorptance
  0.4;                                    !- Visible Absorptance

OS:Material:AirGap,
  {ea5ac757-04c7-4568-83bb-9f0643cbbda9}, !- Handle
  F04 Wall air space resistance,          !- Name
  0.15;                                   !- Thermal Resistance {m2-K/W}

OS:ThermalZone,
  {1da06c82-ae80-4839-85e1-20048e2a1a77}, !- Handle
  Thermal Zone 8 Thermal Zone Thermal Zone, !- Name
  ,                                       !- Multiplier
  ,                                       !- Ceiling Height {m}
  ,                                       !- Volume {m3}
  ,                                       !- Floor Area {m2}
  ,                                       !- Zone Inside Convection Algorithm
  ,                                       !- Zone Outside Convection Algorithm
  ,                                       !- Zone Conditioning Equipment List Name
  {2b041130-89ca-471f-9dc1-740253ed3a0c}, !- Zone Air Inlet Port List
  {b107999d-50e7-4e96-b60b-f0f63705d4ef}, !- Zone Air Exhaust Port List
  {901751d9-05b5-40fe-abce-88084d19f06d}, !- Zone Air Node Name
  ,                                       !- Zone Return Air Node Name
  ,                                       !- Primary Daylighting Control Name
  ,                                       !- Fraction of Zone Controlled by Primary Daylighting Control
  ,                                       !- Secondary Daylighting Control Name
  ,                                       !- Fraction of Zone Controlled by Secondary Daylighting Control
  ,                                       !- Illuminance Map Name
  {6c716a47-073e-4adb-9e2c-b6b284c4acdb}, !- Group Rendering Name
  ,                                       !- Thermostat Name
  No;                                     !- Use Ideal Air Loads

OS:Node,
  {e6844e66-d9d4-4609-8808-124879798dcc}, !- Handle
  {91026696-d2d0-439b-ab8b-6b0073879bcd}, !- Name
  {901751d9-05b5-40fe-abce-88084d19f06d}, !- Inlet Port
  ;                                       !- Outlet Port

OS:Connection,
  {901751d9-05b5-40fe-abce-88084d19f06d}, !- Handle
  {c71f565a-bedf-49e3-ba91-aa682a815179}, !- Name
  {1da06c82-ae80-4839-85e1-20048e2a1a77}, !- Source Object
  11,                                     !- Outlet Port
  {e6844e66-d9d4-4609-8808-124879798dcc}, !- Target Object
  2;                                      !- Inlet Port

OS:PortList,
  {2b041130-89ca-471f-9dc1-740253ed3a0c}, !- Handle
  {a7cfa44d-157a-4c68-8ac4-4c3e134b15ab}, !- Name
  {1da06c82-ae80-4839-85e1-20048e2a1a77}; !- HVAC Component

OS:PortList,
  {b107999d-50e7-4e96-b60b-f0f63705d4ef}, !- Handle
  {d0024bc5-983f-40b3-8413-44a7b3423996}, !- Name
  {1da06c82-ae80-4839-85e1-20048e2a1a77}; !- HVAC Component

OS:Sizing:Zone,
  {6ea583d2-fde6-4206-85c9-eb055b36cdba}, !- Handle
  {1da06c82-ae80-4839-85e1-20048e2a1a77}, !- Zone or ZoneList Name
  SupplyAirTemperature,                   !- Zone Cooling Design Supply Air Temperature Input Method
  14,                                     !- Zone Cooling Design Supply Air Temperature {C}
  11.11,                                  !- Zone Cooling Design Supply Air Temperature Difference {deltaC}
  SupplyAirTemperature,                   !- Zone Heating Design Supply Air Temperature Input Method
  40,                                     !- Zone Heating Design Supply Air Temperature {C}
  11.11,                                  !- Zone Heating Design Supply Air Temperature Difference {deltaC}
  0.0085,                                 !- Zone Cooling Design Supply Air Humidity Ratio {kg-H2O/kg-air}
  0.008,                                  !- Zone Heating Design Supply Air Humidity Ratio {kg-H2O/kg-air}
  ,                                       !- Zone Heating Sizing Factor
  ,                                       !- Zone Cooling Sizing Factor
  DesignDay,                              !- Cooling Design Air Flow Method
  ,                                       !- Cooling Design Air Flow Rate {m3/s}
  ,                                       !- Cooling Minimum Air Flow per Zone Floor Area {m3/s-m2}
  ,                                       !- Cooling Minimum Air Flow {m3/s}
  ,                                       !- Cooling Minimum Air Flow Fraction
  DesignDay,                              !- Heating Design Air Flow Method
  ,                                       !- Heating Design Air Flow Rate {m3/s}
  ,                                       !- Heating Maximum Air Flow per Zone Floor Area {m3/s-m2}
  ,                                       !- Heating Maximum Air Flow {m3/s}
  ,                                       !- Heating Maximum Air Flow Fraction
  ,                                       !- Design Zone Air Distribution Effectiveness in Cooling Mode
  ,                                       !- Design Zone Air Distribution Effectiveness in Heating Mode
  No,                                     !- Account for Dedicated Outdoor Air System
  NeutralSupplyAir,                       !- Dedicated Outdoor Air System Control Strategy
  autosize,                               !- Dedicated Outdoor Air Low Setpoint Temperature for Design {C}
  autosize;                               !- Dedicated Outdoor Air High Setpoint Temperature for Design {C}

OS:ZoneHVAC:EquipmentList,
  {19578c80-d539-4527-bc01-4321187cfe90}, !- Handle
  {5b46893f-610b-45c4-a682-ff0307c8a6e3}, !- Name
  {1da06c82-ae80-4839-85e1-20048e2a1a77}; !- Thermal Zone

OS:Space,
  {a89ec750-1ce3-47d6-abe8-965e3cb20421}, !- Handle
  Thermal Zone 8 Thermal Zone,            !- Name
  ,                                       !- Space Type Name
  ,                                       !- Default Construction Set Name
  ,                                       !- Default Schedule Set Name
  -0,                                     !- Direction of Relative North {deg}
  3.5,                                    !- X Origin {m}
  0,                                      !- Y Origin {m}
  0,                                      !- Z Origin {m}
  ,                                       !- Building Story Name
  {1da06c82-ae80-4839-85e1-20048e2a1a77}; !- Thermal Zone Name

OS:Schedule:Day,
  {7527a39f-a078-4fe4-99d8-8a79ce245988}, !- Handle
  Small Office HtgSetp Summer Design Day, !- Name
  {0f753a94-0b02-4a18-9bc2-6fbd1b624b74}, !- Schedule Type Limits Name
  ,                                       !- Interpolate to Timestep
  24,                                     !- Hour 1
  0,                                      !- Minute 1
  15.6;                                   !- Value Until Time 1

OS:ScheduleTypeLimits,
  {0f753a94-0b02-4a18-9bc2-6fbd1b624b74}, !- Handle
  Temperature 11,                         !- Name
  ,                                       !- Lower Limit Value
  ,                                       !- Upper Limit Value
  Continuous,                             !- Numeric Type
  temperature;                            !- Unit Type

OS:Schedule:Day,
  {879e8a7d-2986-4b32-a82d-6c0e49e93056}, !- Handle
  Small Office ClgSetp Default Schedule,  !- Name
  {4c9da6b5-19ad-4a3a-a24d-d4dad5cfa857}, !- Schedule Type Limits Name
  ,                                       !- Interpolate to Timestep
  6,                                      !- Hour 1
  0,                                      !- Minute 1
  26.7,                                   !- Value Until Time 1
  22,                                     !- Hour 2
  0,                                      !- Minute 2
  24,                                     !- Value Until Time 2
  24,                                     !- Hour 3
  0,                                      !- Minute 3
  26.7;                                   !- Value Until Time 3

OS:ScheduleTypeLimits,
  {4c9da6b5-19ad-4a3a-a24d-d4dad5cfa857}, !- Handle
  Temperature 4,                          !- Name
  ,                                       !- Lower Limit Value
  ,                                       !- Upper Limit Value
  Continuous,                             !- Numeric Type
  temperature;                            !- Unit Type

OS:SpaceInfiltration:EffectiveLeakageArea,
  {bec3a0e4-bfa8-47dc-8583-a6f561976bad}, !- Handle
  Space Infiltration Effective Leakage Area 3, !- Name
  {a89ec750-1ce3-47d6-abe8-965e3cb20421}, !- Space or SpaceType Name
  {e818b907-ad17-46a8-823c-2b1a3d5b7910}, !- Schedule Name
  100,                                    !- Effective Air Leakage Area {cm2}
  0.1,                                    !- Stack Coefficient
  0.1;                                    !- Wind Coefficient

OS:Schedule:Year,
  {e818b907-ad17-46a8-823c-2b1a3d5b7910}, !- Handle
  Office Infil Quarter On 9,              !- Name
  {ff817f7e-e479-41fa-b886-07f736837f8d}, !- Schedule Type Limits Name
  1,                                      !- Month 1
  3,                                      !- Day 1
  {d9a92b8f-227c-4449-8a6d-10f9b815f239}, !- Week Schedule Until Date 1
  12,                                     !- Month 2
  31,                                     !- Day 2
  {82198aea-78a9-4e84-9b37-c3029427a739}; !- Week Schedule Until Date 2

OS:Schedule:Week,
  {d9a92b8f-227c-4449-8a6d-10f9b815f239}, !- Handle
  Schedule:Week:Daily {1cc055dc-f186-4c3e-80b2-e0b4b8f25de7}, !- Name
  ,                                       !- Schedule Rendering Name
  {15a798d6-222b-429f-a57b-4ae913c26fbe}, !- Sunday Schedule:Day Name
  {15a798d6-222b-429f-a57b-4ae913c26fbe}, !- Monday Schedule:Day Name
  {15a798d6-222b-429f-a57b-4ae913c26fbe}, !- Tuesday Schedule:Day Name
  {15a798d6-222b-429f-a57b-4ae913c26fbe}, !- Wednesday Schedule:Day Name
  {15a798d6-222b-429f-a57b-4ae913c26fbe}, !- Thursday Schedule:Day Name
  {15a798d6-222b-429f-a57b-4ae913c26fbe}, !- Friday Schedule:Day Name
  {a07bc0e1-c7a6-4d70-a2ad-43ecc9d45b3e}, !- Saturday Schedule:Day Name
  {15a798d6-222b-429f-a57b-4ae913c26fbe}, !- Holiday Schedule:Day Name
  {d9d647e9-21f1-4185-9328-5a9718275857}, !- SummerDesignDay Schedule:Day Name
  {30b8cc8f-ff41-4d3c-aafc-231a9c250ad4}, !- WinterDesignDay Schedule:Day Name
  {15a798d6-222b-429f-a57b-4ae913c26fbe}, !- CustomDay1 Schedule:Day Name
  {15a798d6-222b-429f-a57b-4ae913c26fbe}; !- CustomDay2 Schedule:Day Name

OS:Schedule:Day,
  {15a798d6-222b-429f-a57b-4ae913c26fbe}, !- Handle
  Office Infil Quarter On Default Schedule 9, !- Name
  {ff817f7e-e479-41fa-b886-07f736837f8d}, !- Schedule Type Limits Name
  ,                                       !- Interpolate to Timestep
  6,                                      !- Hour 1
  0,                                      !- Minute 1
  1,                                      !- Value Until Time 1
  22,                                     !- Hour 2
  0,                                      !- Minute 2
  0.25,                                   !- Value Until Time 2
  24,                                     !- Hour 3
  0,                                      !- Minute 3
  1;                                      !- Value Until Time 3

OS:Schedule:Day,
  {a07bc0e1-c7a6-4d70-a2ad-43ecc9d45b3e}, !- Handle
  Office Infil Quarter On Rule 2 Day Schedule 9, !- Name
  {ff817f7e-e479-41fa-b886-07f736837f8d}, !- Schedule Type Limits Name
  ,                                       !- Interpolate to Timestep
  6,                                      !- Hour 1
  0,                                      !- Minute 1
  1,                                      !- Value Until Time 1
  18,                                     !- Hour 2
  0,                                      !- Minute 2
  0.25,                                   !- Value Until Time 2
  24,                                     !- Hour 3
  0,                                      !- Minute 3
  1;                                      !- Value Until Time 3

OS:Schedule:Day,
  {d9d647e9-21f1-4185-9328-5a9718275857}, !- Handle
  Office Infil Quarter On Summer Design Day 9, !- Name
  {ff817f7e-e479-41fa-b886-07f736837f8d}, !- Schedule Type Limits Name
  ,                                       !- Interpolate to Timestep
  6,                                      !- Hour 1
  0,                                      !- Minute 1
  1,                                      !- Value Until Time 1
  22,                                     !- Hour 2
  0,                                      !- Minute 2
  0.25,                                   !- Value Until Time 2
  24,                                     !- Hour 3
  0,                                      !- Minute 3
  1;                                      !- Value Until Time 3

OS:Schedule:Day,
  {30b8cc8f-ff41-4d3c-aafc-231a9c250ad4}, !- Handle
  Office Infil Quarter On Winter Design Day 9, !- Name
  {ff817f7e-e479-41fa-b886-07f736837f8d}, !- Schedule Type Limits Name
  ,                                       !- Interpolate to Timestep
  6,                                      !- Hour 1
  0,                                      !- Minute 1
  1,                                      !- Value Until Time 1
  18,                                     !- Hour 2
  0,                                      !- Minute 2
  0.25,                                   !- Value Until Time 2
  24,                                     !- Hour 3
  0,                                      !- Minute 3
  1;                                      !- Value Until Time 3

OS:YearDescription,
  {ce4899d6-4b6c-4af1-95f7-ec5b915f4e01}; !- Handle

OS:Schedule:Week,
  {82198aea-78a9-4e84-9b37-c3029427a739}, !- Handle
  Schedule:Week:Daily {79a3214b-4c03-4dae-bde7-776533cc23ab}, !- Name
  ,                                       !- Schedule Rendering Name
  {1fb3e866-c2f7-48c4-8c55-555541885c3f}, !- Sunday Schedule:Day Name
  {15a798d6-222b-429f-a57b-4ae913c26fbe}, !- Monday Schedule:Day Name
  {15a798d6-222b-429f-a57b-4ae913c26fbe}, !- Tuesday Schedule:Day Name
  {15a798d6-222b-429f-a57b-4ae913c26fbe}, !- Wednesday Schedule:Day Name
  {15a798d6-222b-429f-a57b-4ae913c26fbe}, !- Thursday Schedule:Day Name
  {15a798d6-222b-429f-a57b-4ae913c26fbe}, !- Friday Schedule:Day Name
  {a07bc0e1-c7a6-4d70-a2ad-43ecc9d45b3e}, !- Saturday Schedule:Day Name
  {15a798d6-222b-429f-a57b-4ae913c26fbe}, !- Holiday Schedule:Day Name
  {d9d647e9-21f1-4185-9328-5a9718275857}, !- SummerDesignDay Schedule:Day Name
  {30b8cc8f-ff41-4d3c-aafc-231a9c250ad4}, !- WinterDesignDay Schedule:Day Name
  {15a798d6-222b-429f-a57b-4ae913c26fbe}, !- CustomDay1 Schedule:Day Name
  {15a798d6-222b-429f-a57b-4ae913c26fbe}; !- CustomDay2 Schedule:Day Name

OS:Schedule:Day,
  {1fb3e866-c2f7-48c4-8c55-555541885c3f}, !- Handle
  Office Infil Quarter On Rule 1 Day Schedule 9, !- Name
  {ff817f7e-e479-41fa-b886-07f736837f8d}, !- Schedule Type Limits Name
  ,                                       !- Interpolate to Timestep
  24,                                     !- Hour 1
  0,                                      !- Minute 1
  1;                                      !- Value Until Time 1

OS:Schedule:Day,
  {74e18b29-c614-4bd9-9792-334344d29eae}, !- Handle
  Office Activity Default Schedule 5,     !- Name
  {d06b429c-e95c-43f1-96c5-4fa4658e0f53}, !- Schedule Type Limits Name
  ,                                       !- Interpolate to Timestep
  24,                                     !- Hour 1
  0,                                      !- Minute 1
  132;                                    !- Value Until Time 1

OS:Schedule:Year,
  {c92b2acf-81a4-45b8-b094-94b61fbc521a}, !- Handle
  Office Activity 13,                     !- Name
  {d06b429c-e95c-43f1-96c5-4fa4658e0f53}, !- Schedule Type Limits Name
  12,                                     !- Month 1
  31,                                     !- Day 1
  {c5deb2fa-df45-480a-87d4-fce81fc85169}; !- Week Schedule Until Date 1

OS:Schedule:Week,
  {c5deb2fa-df45-480a-87d4-fce81fc85169}, !- Handle
  Schedule:Week:Daily {a5885dc8-60fa-4da2-b4ee-06584c913c44}, !- Name
  ,                                       !- Schedule Rendering Name
  {1a3457dc-5b53-422c-8491-aa25578cdb77}, !- Sunday Schedule:Day Name
  {1a3457dc-5b53-422c-8491-aa25578cdb77}, !- Monday Schedule:Day Name
  {1a3457dc-5b53-422c-8491-aa25578cdb77}, !- Tuesday Schedule:Day Name
  {1a3457dc-5b53-422c-8491-aa25578cdb77}, !- Wednesday Schedule:Day Name
  {1a3457dc-5b53-422c-8491-aa25578cdb77}, !- Thursday Schedule:Day Name
  {1a3457dc-5b53-422c-8491-aa25578cdb77}, !- Friday Schedule:Day Name
  {1a3457dc-5b53-422c-8491-aa25578cdb77}, !- Saturday Schedule:Day Name
  {1a3457dc-5b53-422c-8491-aa25578cdb77}, !- Holiday Schedule:Day Name
  {bb2f17c8-6d32-49ca-a6e4-027bc615f722}, !- SummerDesignDay Schedule:Day Name
  {1bda8228-6370-46ed-be7c-a0c3e52d4f70}, !- WinterDesignDay Schedule:Day Name
  {1a3457dc-5b53-422c-8491-aa25578cdb77}, !- CustomDay1 Schedule:Day Name
  {1a3457dc-5b53-422c-8491-aa25578cdb77}; !- CustomDay2 Schedule:Day Name

OS:Schedule:Day,
  {1a3457dc-5b53-422c-8491-aa25578cdb77}, !- Handle
  Office Activity Default Schedule 13,    !- Name
  {d06b429c-e95c-43f1-96c5-4fa4658e0f53}, !- Schedule Type Limits Name
  ,                                       !- Interpolate to Timestep
  24,                                     !- Hour 1
  0,                                      !- Minute 1
  132;                                    !- Value Until Time 1

OS:Schedule:Day,
  {bb2f17c8-6d32-49ca-a6e4-027bc615f722}, !- Handle
  Office Activity Summer Design Day 13,   !- Name
  {d06b429c-e95c-43f1-96c5-4fa4658e0f53}, !- Schedule Type Limits Name
  ,                                       !- Interpolate to Timestep
  24,                                     !- Hour 1
  0,                                      !- Minute 1
  132;                                    !- Value Until Time 1

OS:Schedule:Day,
  {1bda8228-6370-46ed-be7c-a0c3e52d4f70}, !- Handle
  Office Activity Winter Design Day 13,   !- Name
  {d06b429c-e95c-43f1-96c5-4fa4658e0f53}, !- Schedule Type Limits Name
  ,                                       !- Interpolate to Timestep
  24,                                     !- Hour 1
  0,                                      !- Minute 1
  132;                                    !- Value Until Time 1

OS:Schedule:Week,
  {43972ddb-db62-4944-bbf3-9beb66e6a252}, !- Handle
  Schedule:Week:Daily {c7a8b6ad-4368-4abf-a154-1148ea9cb10e}, !- Name
  ,                                       !- Schedule Rendering Name
  {e392be5d-89f6-45c9-8757-83b5a6301b57}, !- Sunday Schedule:Day Name
  {262c7fb9-4067-41b3-8111-db4544693e4d}, !- Monday Schedule:Day Name
  {262c7fb9-4067-41b3-8111-db4544693e4d}, !- Tuesday Schedule:Day Name
  {262c7fb9-4067-41b3-8111-db4544693e4d}, !- Wednesday Schedule:Day Name
  {262c7fb9-4067-41b3-8111-db4544693e4d}, !- Thursday Schedule:Day Name
  {262c7fb9-4067-41b3-8111-db4544693e4d}, !- Friday Schedule:Day Name
  {1084592d-5abd-4dd3-82e1-4b01d761470d}, !- Saturday Schedule:Day Name
  {262c7fb9-4067-41b3-8111-db4544693e4d}, !- Holiday Schedule:Day Name
  {a0d181a4-5129-4a75-9a98-50adaa60cb76}, !- SummerDesignDay Schedule:Day Name
  {763b3acc-0564-4182-a0a9-f212aabc508d}, !- WinterDesignDay Schedule:Day Name
  {262c7fb9-4067-41b3-8111-db4544693e4d}, !- CustomDay1 Schedule:Day Name
  {262c7fb9-4067-41b3-8111-db4544693e4d}; !- CustomDay2 Schedule:Day Name

OS:Schedule:Day,
  {e392be5d-89f6-45c9-8757-83b5a6301b57}, !- Handle
  Office Bldg Light Rule 1 Day Schedule 13, !- Name
  {ff817f7e-e479-41fa-b886-07f736837f8d}, !- Schedule Type Limits Name
  ,                                       !- Interpolate to Timestep
  24,                                     !- Hour 1
  0,                                      !- Minute 1
  0.05;                                   !- Value Until Time 1

OS:Schedule:Day,
  {262c7fb9-4067-41b3-8111-db4544693e4d}, !- Handle
  Office Bldg Light Default Schedule 13,  !- Name
  {ff817f7e-e479-41fa-b886-07f736837f8d}, !- Schedule Type Limits Name
  ,                                       !- Interpolate to Timestep
  5,                                      !- Hour 1
  0,                                      !- Minute 1
  0.05,                                   !- Value Until Time 1
  7,                                      !- Hour 2
  0,                                      !- Minute 2
  0.1,                                    !- Value Until Time 2
  8,                                      !- Hour 3
  0,                                      !- Minute 3
  0.3,                                    !- Value Until Time 3
  17,                                     !- Hour 4
  0,                                      !- Minute 4
  0.9,                                    !- Value Until Time 4
  18,                                     !- Hour 5
  0,                                      !- Minute 5
  0.7,                                    !- Value Until Time 5
  20,                                     !- Hour 6
  0,                                      !- Minute 6
  0.5,                                    !- Value Until Time 6
  22,                                     !- Hour 7
  0,                                      !- Minute 7
  0.3,                                    !- Value Until Time 7
  23,                                     !- Hour 8
  0,                                      !- Minute 8
  0.1,                                    !- Value Until Time 8
  24,                                     !- Hour 9
  0,                                      !- Minute 9
  0.05;                                   !- Value Until Time 9

OS:Schedule:Day,
  {1084592d-5abd-4dd3-82e1-4b01d761470d}, !- Handle
  Office Bldg Light Rule 2 Day Schedule 13, !- Name
  {ff817f7e-e479-41fa-b886-07f736837f8d}, !- Schedule Type Limits Name
  ,                                       !- Interpolate to Timestep
  6,                                      !- Hour 1
  0,                                      !- Minute 1
  0.05,                                   !- Value Until Time 1
  8,                                      !- Hour 2
  0,                                      !- Minute 2
  0.1,                                    !- Value Until Time 2
  14,                                     !- Hour 3
  0,                                      !- Minute 3
  0.5,                                    !- Value Until Time 3
  17,                                     !- Hour 4
  0,                                      !- Minute 4
  0.15,                                   !- Value Until Time 4
  24,                                     !- Hour 5
  0,                                      !- Minute 5
  0.05;                                   !- Value Until Time 5

OS:Schedule:Day,
  {a0d181a4-5129-4a75-9a98-50adaa60cb76}, !- Handle
  Office Bldg Light Summer Design Day 13, !- Name
  {ff817f7e-e479-41fa-b886-07f736837f8d}, !- Schedule Type Limits Name
  ,                                       !- Interpolate to Timestep
  24,                                     !- Hour 1
  0,                                      !- Minute 1
  1;                                      !- Value Until Time 1

OS:Schedule:Day,
  {763b3acc-0564-4182-a0a9-f212aabc508d}, !- Handle
  Office Bldg Light Winter Design Day 13, !- Name
  {ff817f7e-e479-41fa-b886-07f736837f8d}, !- Schedule Type Limits Name
  ,                                       !- Interpolate to Timestep
  24,                                     !- Hour 1
  0,                                      !- Minute 1
  0;                                      !- Value Until Time 1

OS:Schedule:Day,
  {511fc1d4-cd0c-4a08-b164-91ec3feb80a6}, !- Handle
  Office Bldg Occ Summer Design Day 14,   !- Name
  {ff817f7e-e479-41fa-b886-07f736837f8d}, !- Schedule Type Limits Name
  ,                                       !- Interpolate to Timestep
  6,                                      !- Hour 1
  0,                                      !- Minute 1
  0,                                      !- Value Until Time 1
  22,                                     !- Hour 2
  0,                                      !- Minute 2
  1,                                      !- Value Until Time 2
  24,                                     !- Hour 3
  0,                                      !- Minute 3
  0.05;                                   !- Value Until Time 3

OS:Schedule:Week,
  {c0146449-99cb-46ad-8569-61a68f3d6ca1}, !- Handle
  Schedule:Week:Daily {76de0583-5e69-4a74-a09a-aa5cbdf96652}, !- Name
  ,                                       !- Schedule Rendering Name
  {28cb195a-fbb4-4643-ac56-9caf37896f62}, !- Sunday Schedule:Day Name
  {00e425ec-1197-4af1-9c36-f239d26b630b}, !- Monday Schedule:Day Name
  {00e425ec-1197-4af1-9c36-f239d26b630b}, !- Tuesday Schedule:Day Name
  {00e425ec-1197-4af1-9c36-f239d26b630b}, !- Wednesday Schedule:Day Name
  {00e425ec-1197-4af1-9c36-f239d26b630b}, !- Thursday Schedule:Day Name
  {00e425ec-1197-4af1-9c36-f239d26b630b}, !- Friday Schedule:Day Name
  {429d29bf-2542-44ba-b657-17c22e6b4073}, !- Saturday Schedule:Day Name
  {00e425ec-1197-4af1-9c36-f239d26b630b}, !- Holiday Schedule:Day Name
  {52795c26-e9e1-4ad6-9c73-1d98d295f650}, !- SummerDesignDay Schedule:Day Name
  {c8540919-caf3-40d6-9f53-fd5d63942af8}, !- WinterDesignDay Schedule:Day Name
  {00e425ec-1197-4af1-9c36-f239d26b630b}, !- CustomDay1 Schedule:Day Name
  {00e425ec-1197-4af1-9c36-f239d26b630b}; !- CustomDay2 Schedule:Day Name

OS:Schedule:Day,
  {28cb195a-fbb4-4643-ac56-9caf37896f62}, !- Handle
  Office Infil Quarter On Rule 1 Day Schedule 4, !- Name
  {ff817f7e-e479-41fa-b886-07f736837f8d}, !- Schedule Type Limits Name