
OS:Version,
  {2e8ed274-d9ef-4070-b1da-e6a05c00ce8c}, !- Handle
  2.0.4;                                  !- Version Identifier

OS:Site,
  {628382db-e71e-457b-8caf-2c0d8db56827}, !- Handle
  TAIPEI,                                 !- Name
  25.07,                                  !- Latitude {deg}
  121.55,                                 !- Longitude {deg}
  8,                                      !- Time Zone {hr}
  6,                                      !- Elevation {m}
  ;                                       !- Terrain

OS:SimulationControl,
  {4fd4b7e6-4d85-4193-85d3-a863d57d2f13}, !- Handle
  Yes,                                    !- Do Zone Sizing Calculation
  Yes,                                    !- Do System Sizing Calculation
  No,                                     !- Do Plant Sizing Calculation
  Yes,                                    !- Run Simulation for Sizing Periods
  Yes,                                    !- Run Simulation for Weather File Run Periods
  ,                                       !- Loads Convergence Tolerance Value
  ,                                       !- Temperature Convergence Tolerance Value {deltaC}
  ;                                       !- Solar Distribution

OS:Construction,
  {18e6e142-566a-4bf4-b116-61434704671a}, !- Handle
  ASHRAE 189.1-2009 ExtRoof Metal ClimateZone 6, !- Name
  {2b1f2441-99d6-430f-a973-c6643d1721ea}, !- Surface Rendering Name
  {a5a7f0ac-cc62-4e77-aa95-5a68487bb504}, !- Layer 1
  {619ca2bb-8608-475a-8fcf-2651d3205db3}, !- Layer 2
  {49038df8-b689-4532-9dbc-7d853a1228ea}; !- Layer 3

OS:Material,
  {a5a7f0ac-cc62-4e77-aa95-5a68487bb504}, !- Handle
  Metal Roofing,                          !- Name
  MediumSmooth,                           !- Roughness
  0.0015,                                 !- Thickness {m}
  45.006,                                 !- Conductivity {W/m-K}
  7680,                                   !- Density {kg/m3}
  418.4,                                  !- Specific Heat {J/kg-K}
  0.9,                                    !- Thermal Absorptance
  0.6,                                    !- Solar Absorptance
  0.6;                                    !- Visible Absorptance

OS:Material,
  {619ca2bb-8608-475a-8fcf-2651d3205db3}, !- Handle
  Roof Insulation [25],                   !- Name
  MediumRough,                            !- Roughness
  0.263,                                  !- Thickness {m}
  0.049,                                  !- Conductivity {W/m-K}
  265,                                    !- Density {kg/m3}
  836.800000000001,                       !- Specific Heat {J/kg-K}
  0.9,                                    !- Thermal Absorptance
  0.7,                                    !- Solar Absorptance
  0.7;                                    !- Visible Absorptance

OS:Material,
  {49038df8-b689-4532-9dbc-7d853a1228ea}, !- Handle
  Metal Decking,                          !- Name
  MediumSmooth,                           !- Roughness
  0.0015,                                 !- Thickness {m}
  45.006,                                 !- Conductivity {W/m-K}
  7680,                                   !- Density {kg/m3}
  418.4,                                  !- Specific Heat {J/kg-K}
  0.9,                                    !- Thermal Absorptance
  0.6,                                    !- Solar Absorptance
  0.6;                                    !- Visible Absorptance

OS:Schedule:Year,
  {95d82719-cc7b-4a06-9312-14cc6298fe1a}, !- Handle
  Small Office Bldg Equip,                !- Name
  {ebfd40d1-8fed-48c0-a674-2d0c7759271d}, !- Schedule Type Limits Name
  12,                                     !- Month 1
  31,                                     !- Day 1
  {68c14f6d-8212-4cb0-8bc4-2ef5db213278}; !- Week Schedule Until Date 1

OS:ScheduleTypeLimits,
  {ebfd40d1-8fed-48c0-a674-2d0c7759271d}, !- Handle
  Fractional,                             !- Name
  0,                                      !- Lower Limit Value
  1,                                      !- Upper Limit Value
  Continuous;                             !- Numeric Type

OS:Schedule:Week,
  {68c14f6d-8212-4cb0-8bc4-2ef5db213278}, !- Handle
  Schedule:Week:Daily {dff3b8f0-5108-4490-9111-15fd11ed127b}, !- Name
  ,                                       !- Schedule Rendering Name
  {12e64e47-e133-4fa2-951e-64af2f0c57d0}, !- Sunday Schedule:Day Name
  {ef61517d-acac-4807-9c2c-0cf75eddac3e}, !- Monday Schedule:Day Name
  {ef61517d-acac-4807-9c2c-0cf75eddac3e}, !- Tuesday Schedule:Day Name
  {ef61517d-acac-4807-9c2c-0cf75eddac3e}, !- Wednesday Schedule:Day Name
  {ef61517d-acac-4807-9c2c-0cf75eddac3e}, !- Thursday Schedule:Day Name
  {ef61517d-acac-4807-9c2c-0cf75eddac3e}, !- Friday Schedule:Day Name
  {38a7ec46-156c-4178-bc84-69c42012c831}, !- Saturday Schedule:Day Name
  {ef61517d-acac-4807-9c2c-0cf75eddac3e}, !- Holiday Schedule:Day Name
  {86730c28-e554-49f7-a13a-897a1a1f9033}, !- SummerDesignDay Schedule:Day Name
  {50d1e0da-6eb4-4a06-8a55-6c0ce1dd93c0}, !- WinterDesignDay Schedule:Day Name
  {ef61517d-acac-4807-9c2c-0cf75eddac3e}, !- CustomDay1 Schedule:Day Name
  {ef61517d-acac-4807-9c2c-0cf75eddac3e}; !- CustomDay2 Schedule:Day Name

OS:Schedule:Day,
  {12e64e47-e133-4fa2-951e-64af2f0c57d0}, !- Handle
  Small Office Bldg Equip Rule 1 Day Schedule, !- Name
  {ebfd40d1-8fed-48c0-a674-2d0c7759271d}, !- Schedule Type Limits Name
  ,                                       !- Interpolate to Timestep
  24,                                     !- Hour 1
  0,                                      !- Minute 1
  0.3;                                    !- Value Until Time 1

OS:Schedule:Day,
  {ef61517d-acac-4807-9c2c-0cf75eddac3e}, !- Handle
  Small Office Bldg Equip Default Schedule, !- Name
  {ebfd40d1-8fed-48c0-a674-2d0c7759271d}, !- Schedule Type Limits Name
  ,                                       !- Interpolate to Timestep
  8,                                      !- Hour 1
  0,                                      !- Minute 1
  0.4,                                    !- Value Until Time 1
  12,                                     !- Hour 2
  0,                                      !- Minute 2
  0.9,                                    !- Value Until Time 2
  13,                                     !- Hour 3
  0,                                      !- Minute 3
  0.8,                                    !- Value Until Time 3
  17,                                     !- Hour 4
  0,                                      !- Minute 4
  0.9,                                    !- Value Until Time 4
  18,                                     !- Hour 5
  0,                                      !- Minute 5
  0.5,                                    !- Value Until Time 5
  24,                                     !- Hour 6
  0,                                      !- Minute 6
  0.4;                                    !- Value Until Time 6

OS:Schedule:Day,
  {38a7ec46-156c-4178-bc84-69c42012c831}, !- Handle
  Small Office Bldg Equip Rule 2 Day Schedule, !- Name
  {ebfd40d1-8fed-48c0-a674-2d0c7759271d}, !- Schedule Type Limits Name
  ,                                       !- Interpolate to Timestep
  6,                                      !- Hour 1
  0,                                      !- Minute 1
  0.3,                                    !- Value Until Time 1
  8,                                      !- Hour 2
  0,                                      !- Minute 2
  0.4,                                    !- Value Until Time 2
  12,                                     !- Hour 3
  0,                                      !- Minute 3
  0.5,                                    !- Value Until Time 3
  17,                                     !- Hour 4
  0,                                      !- Minute 4
  0.35,                                   !- Value Until Time 4
  24,                                     !- Hour 5
  0,                                      !- Minute 5
  0.3;                                    !- Value Until Time 5

OS:Schedule:Day,
  {86730c28-e554-49f7-a13a-897a1a1f9033}, !- Handle
  Small Office Bldg Equip Summer Design Day, !- Name
  {ebfd40d1-8fed-48c0-a674-2d0c7759271d}, !- Schedule Type Limits Name
  ,                                       !- Interpolate to Timestep
  24,                                     !- Hour 1
  0,                                      !- Minute 1
  1;                                      !- Value Until Time 1

OS:Schedule:Day,
  {50d1e0da-6eb4-4a06-8a55-6c0ce1dd93c0}, !- Handle
  Small Office Bldg Equip Winter Design Day, !- Name
  {ebfd40d1-8fed-48c0-a674-2d0c7759271d}, !- Schedule Type Limits Name
  ,                                       !- Interpolate to Timestep
  24,                                     !- Hour 1
  0,                                      !- Minute 1
  0;                                      !- Value Until Time 1

OS:YearDescription,
  {97472561-d9b5-4a8b-b3e0-30a99d79e3fb}; !- Handle

OS:Schedule:Day,
  {73b46deb-5a95-4fde-ba93-360cc7ff1b27}, !- Handle
  Small Office ClgSetp Winter Design Day, !- Name
  {2db84fd6-5a3b-4892-959c-1c32707c5f12}, !- Schedule Type Limits Name
  ,                                       !- Interpolate to Timestep
  24,                                     !- Hour 1
  0,                                      !- Minute 1
  26.7;                                   !- Value Until Time 1

OS:ScheduleTypeLimits,
  {2db84fd6-5a3b-4892-959c-1c32707c5f12}, !- Handle
  Temperature 4,                          !- Name
  ,                                       !- Lower Limit Value
  ,                                       !- Upper Limit Value
  Continuous,                             !- Numeric Type
  temperature;                            !- Unit Type

OS:Schedule:Day,
  {d45f40df-3a32-46fa-8267-9f9f0a3761b8}, !- Handle
  Medium Office Bldg Occ Rule 1 Day Schedule, !- Name
  {6ef5c895-b1a4-4bbb-b56a-5385eb8cf60a}, !- Schedule Type Limits Name
  ,                                       !- Interpolate to Timestep
  24,                                     !- Hour 1
  0,                                      !- Minute 1
  0;                                      !- Value Until Time 1

OS:ScheduleTypeLimits,
  {6ef5c895-b1a4-4bbb-b56a-5385eb8cf60a}, !- Handle
  Fraction,                               !- Name
  0,                                      !- Lower Limit Value
  1,                                      !- Upper Limit Value
  CONTINUOUS;                             !- Numeric Type

OS:Schedule:Day,
  {027ec3a7-f561-4c1b-9a86-a0811714732c}, !- Handle
  Medium Office Infil Quarter On Summer Design Day, !- Name
  {6ef5c895-b1a4-4bbb-b56a-5385eb8cf60a}, !- Schedule Type Limits Name
  ,                                       !- Interpolate to Timestep
  6,                                      !- Hour 1
  0,                                      !- Minute 1
  1,                                      !- Value Until Time 1
  22,                                     !- Hour 2
  0,                                      !- Minute 2
  0.25,                                   !- Value Until Time 2
  24,                                     !- Hour 3
  0,                                      !- Minute 3
  1;                                      !- Value Until Time 3

OS:Schedule:Day,
  {60e08231-21f3-4ef3-85ed-798081dafc98}, !- Handle
  Office Activity Summer Design Day,      !- Name
  {d60666ce-cce2-450e-b738-09441874a7ac}, !- Schedule Type Limits Name
  ,                                       !- Interpolate to Timestep
  24,                                     !- Hour 1
  0,                                      !- Minute 1
  132;                                    !- Value Until Time 1

OS:ScheduleTypeLimits,
  {d60666ce-cce2-450e-b738-09441874a7ac}, !- Handle
  ActivityLevel,                          !- Name
  0,                                      !- Lower Limit Value
  ,                                       !- Upper Limit Value
  Continuous,                             !- Numeric Type
  activitylevel;                          !- Unit Type

OS:Construction,
  {e6af165a-db23-4ff1-b3ce-906915ae0135}, !- Handle
  ASHRAE 189.1-2009 ExtWindow ClimateZone 3, !- Name
  {adb3d847-d056-411e-937d-8ee107e2816b}, !- Surface Rendering Name
  {85456419-1fa4-485d-85ba-7d3f1309eda7}; !- Layer 1

OS:WindowMaterial:Glazing,
  {85456419-1fa4-485d-85ba-7d3f1309eda7}, !- Handle
  Theoretical Glass [202],                !- Name
  Spectral,                               !- Optical Data Type
  ,                                       !- Window Glass Spectral Data Set Name
  0.00299999999999999,                    !- Thickness {m}
  0.2325,                                 !- Solar Transmittance at Normal Incidence
  0.7175,                                 !- Front Side Solar Reflectance at Normal Incidence
  0,                                      !- Back Side Solar Reflectance at Normal Incidence
  0.3192,                                 !- Visible Transmittance at Normal Incidence
  0.6308,                                 !- Front Side Visible Reflectance at Normal Incidence
  0,                                      !- Back Side Visible Reflectance at Normal Incidence
  0,                                      !- Infrared Transmittance at Normal Incidence
  0.9,                                    !- Front Side Infrared Hemispherical Emissivity
  0.9,                                    !- Back Side Infrared Hemispherical Emissivity
  0.0192,                                 !- Conductivity {W/m-K}
  1,                                      !- Dirt Correction Factor for Solar and Visible Transmittance
  No;                                     !- Solar Diffusing

OS:Schedule:Day,
  {b0abef6f-0e01-42b8-b325-7d8fd1246d9d}, !- Handle
  Office Bldg Light Winter Design Day,    !- Name
  {6ef5c895-b1a4-4bbb-b56a-5385eb8cf60a}, !- Schedule Type Limits Name
  ,                                       !- Interpolate to Timestep
  24,                                     !- Hour 1
  0,                                      !- Minute 1
  0;                                      !- Value Until Time 1

OS:Curve:Biquadratic,
  {d5be9064-f9be-4a43-9e96-de6e0de4fa02}, !- Handle
  Curve Biquadratic 4,                    !- Name
  0.70176857,                             !- Coefficient1 Constant
  -0.00452016,                            !- Coefficient2 x
  0.0005331096,                           !- Coefficient3 x**2
  -0.005498208,                           !- Coefficient4 y
  0.0005445792,                           !- Coefficient5 y**2
  -0.0007290324,                          !- Coefficient6 x*y
  5,                                      !- Minimum Value of x
  10,                                     !- Maximum Value of x
  24,                                     !- Minimum Value of y
  35;                                     !- Maximum Value of y

OS:Material,
  {c7d481a4-0835-4398-9f72-6e2bea690ac4}, !- Handle
  F16 Acoustic tile,                      !- Name
  MediumSmooth,                           !- Roughness
  0.0191,                                 !- Thickness {m}
  0.06,                                   !- Conductivity {W/m-K}
  368,                                    !- Density {kg/m3}
  590.000000000002,                       !- Specific Heat {J/kg-K}
  0.9,                                    !- Thermal Absorptance
  0.3,                                    !- Solar Absorptance
  0.3;                                    !- Visible Absorptance

OS:ScheduleTypeLimits,
  {830c7f82-f525-485b-85b3-674e7c05d3f2}, !- Handle
  ActivityLevel 13,                       !- Name
  0,                                      !- Lower Limit Value
  ,                                       !- Upper Limit Value
  Continuous,                             !- Numeric Type
  activitylevel;                          !- Unit Type

OS:Material,
  {6ed9746a-4a89-4d5b-97dc-7b2673441b17}, !- Handle
  1/2IN Gypsum,                           !- Name
  Smooth,                                 !- Roughness
  0.0127,                                 !- Thickness {m}
  0.16,                                   !- Conductivity {W/m-K}
  784.9,                                  !- Density {kg/m3}
  830.000000000001,                       !- Specific Heat {J/kg-K}
  0.9,                                    !- Thermal Absorptance
  0.4,                                    !- Solar Absorptance
  0.4;                                    !- Visible Absorptance

OS:Schedule:Day,
  {1b9b1be5-af57-4a40-a75a-9f4b0ef29a94}, !- Handle
  Small Office ClgSetp Rule 2 Day Schedule, !- Name
  {2db84fd6-5a3b-4892-959c-1c32707c5f12}, !- Schedule Type Limits Name
  ,                                       !- Interpolate to Timestep
  6,                                      !- Hour 1
  0,                                      !- Minute 1
  26.7,                                   !- Value Until Time 1
  18,                                     !- Hour 2
  0,                                      !- Minute 2
  24,                                     !- Value Until Time 2
  24,                                     !- Hour 3
  0,                                      !- Minute 3
  26.7;                                   !- Value Until Time 3

OS:RunPeriod,
  {15db5821-8742-4958-8997-b49f90b64686}, !- Handle
  Run Period 1,                           !- Name
  1,                                      !- Begin Month
  1,                                      !- Begin Day of Month
  12,                                     !- End Month
  31,                                     !- End Day of Month
  No,                                     !- Use Weather File Holidays and Special Days
  No,                                     !- Use Weather File Daylight Saving Period
  No,                                     !- Apply Weekend Holiday Rule
  Yes,                                    !- Use Weather File Rain Indicators
  Yes,                                    !- Use Weather File Snow Indicators
  1;                                      !- Number of Times Runperiod to be Repeated

OS:Schedule:Day,
  {5cfacfeb-f2ea-4039-bef1-75fc8bd1a83b}, !- Handle
  Office Bldg Light Rule 2 Day Schedule,  !- Name
  {6ef5c895-b1a4-4bbb-b56a-5385eb8cf60a}, !- Schedule Type Limits Name
  ,                                       !- Interpolate to Timestep
  6,                                      !- Hour 1
  0,                                      !- Minute 1
  0.05,                                   !- Value Until Time 1
  8,                                      !- Hour 2
  0,                                      !- Minute 2
  0.1,                                    !- Value Until Time 2
  14,                                     !- Hour 3
  0,                                      !- Minute 3
  0.5,                                    !- Value Until Time 3
  17,                                     !- Hour 4
  0,                                      !- Minute 4
  0.15,                                   !- Value Until Time 4
  24,                                     !- Hour 5
  0,                                      !- Minute 5
  0.05;                                   !- Value Until Time 5

OS:Schedule:Day,
  {575db15a-96f3-4002-98dd-d77c5ee7e813}, !- Handle
  Large Office Infil Quarter On Rule 1 Day Schedule, !- Name
  {ebfd40d1-8fed-48c0-a674-2d0c7759271d}, !- Schedule Type Limits Name
  ,                                       !- Interpolate to Timestep
  24,                                     !- Hour 1
  0,                                      !- Minute 1
  1;                                      !- Value Until Time 1

OS:Construction,
  {b57687dd-df0c-4f9b-b0db-39741d51851f}, !- Handle
  Exterior Door,                          !- Name
  {53aaf689-25ff-4333-aceb-be4d3218720f}, !- Surface Rendering Name
  {8c51f2f9-d791-4d7d-a097-39dcc90d2b6b}, !- Layer 1
  {b5b4d115-3952-4d1b-b781-e2e2e3c36180}; !- Layer 2

OS:Material,
  {8c51f2f9-d791-4d7d-a097-39dcc90d2b6b}, !- Handle
  F08 Metal surface,                      !- Name
  Smooth,                                 !- Roughness
  0.0008,                                 !- Thickness {m}
  45.2800000000001,                       !- Conductivity {W/m-K}
  7823.99999999999,                       !- Density {kg/m3}
  500,                                    !- Specific Heat {J/kg-K}
  0.9,                                    !- Thermal Absorptance
  0.7,                                    !- Solar Absorptance
  0.7;                                    !- Visible Absorptance

OS:Material,
  {b5b4d115-3952-4d1b-b781-e2e2e3c36180}, !- Handle
  I01 25mm insulation board,              !- Name
  MediumRough,                            !- Roughness
  0.0254,                                 !- Thickness {m}
  0.03,                                   !- Conductivity {W/m-K}
  43,                                     !- Density {kg/m3}
  1210,                                   !- Specific Heat {J/kg-K}
  0.9,                                    !- Thermal Absorptance
  0.6,                                    !- Solar Absorptance
  0.6;                                    !- Visible Absorptance

OS:Schedule:Day,
  {3455ae1d-2140-473a-b949-46dc87394e73}, !- Handle
  Large Office Infil Quarter On Default Schedule, !- Name
  {ebfd40d1-8fed-48c0-a674-2d0c7759271d}, !- Schedule Type Limits Name
  ,                                       !- Interpolate to Timestep
  6,                                      !- Hour 1
  0,                                      !- Minute 1
  1,                                      !- Value Until Time 1
  22,                                     !- Hour 2
  0,                                      !- Minute 2
  0.25,                                   !- Value Until Time 2
  24,                                     !- Hour 3
  0,                                      !- Minute 3
  1;                                      !- Value Until Time 3

OS:Schedule:Week,
  {816c99a8-10c1-4005-8cbe-ca84d3c0b4d8}, !- Handle
  Schedule:Week:Daily {0bc80e9a-67ee-45e2-86ae-3abb88715da4}, !- Name
  ,                                       !- Schedule Rendering Name
  {46556ac8-6808-42a8-8db1-795d38fcef30}, !- Sunday Schedule:Day Name
  {859e09e1-480f-44d1-bdc0-b2e7261f5790}, !- Monday Schedule:Day Name
  {859e09e1-480f-44d1-bdc0-b2e7261f5790}, !- Tuesday Schedule:Day Name
  {859e09e1-480f-44d1-bdc0-b2e7261f5790}, !- Wednesday Schedule:Day Name
  {859e09e1-480f-44d1-bdc0-b2e7261f5790}, !- Thursday Schedule:Day Name
  {859e09e1-480f-44d1-bdc0-b2e7261f5790}, !- Friday Schedule:Day Name
  {14471cc6-1f72-4c27-a10c-15dc1ac497d7}, !- Saturday Schedule:Day Name
  {859e09e1-480f-44d1-bdc0-b2e7261f5790}, !- Holiday Schedule:Day Name
  {0c307597-13e7-4fa8-94b5-43c82cba3c97}, !- SummerDesignDay Schedule:Day Name
  {b1ebb6f5-bfd6-4f03-9867-af226f1c54fe}, !- WinterDesignDay Schedule:Day Name
  {859e09e1-480f-44d1-bdc0-b2e7261f5790}, !- CustomDay1 Schedule:Day Name
  {859e09e1-480f-44d1-bdc0-b2e7261f5790}; !- CustomDay2 Schedule:Day Name

OS:Schedule:Day,
  {46556ac8-6808-42a8-8db1-795d38fcef30}, !- Handle
  Office Bldg Occ Rule 1 Day Schedule,    !- Name
  {6ef5c895-b1a4-4bbb-b56a-5385eb8cf60a}, !- Schedule Type Limits Name
  ,                                       !- Interpolate to Timestep
  24,                                     !- Hour 1
  0,                                      !- Minute 1
  0;                                      !- Value Until Time 1

OS:Schedule:Day,
  {859e09e1-480f-44d1-bdc0-b2e7261f5790}, !- Handle
  Office Bldg Occ Default Schedule,       !- Name
  {6ef5c895-b1a4-4bbb-b56a-5385eb8cf60a}, !- Schedule Type Limits Name
  ,                                       !- Interpolate to Timestep
  6,                                      !- Hour 1
  0,                                      !- Minute 1
  0,                                      !- Value Until Time 1
  7,                                      !- Hour 2
  0,                                      !- Minute 2
  0.100000001490116,                      !- Value Until Time 2
  8,                                      !- Hour 3
  0,                                      !- Minute 3
  0.200000002980232,                      !- Value Until Time 3
  12,                                     !- Hour 4
  0,                                      !- Minute 4
  0.850000023841858,                      !- Value Until Time 4
  13,                                     !- Hour 5
  0,                                      !- Minute 5
  0.5,                                    !- Value Until Time 5
  17,                                     !- Hour 6
  0,                                      !- Minute 6
  0.850000023841858,                      !- Value Until Time 6
  18,                                     !- Hour 7
  0,                                      !- Minute 7
  0.699999988079071,                      !- Value Until Time 7
  20,                                     !- Hour 8
  0,                                      !- Minute 8
  0.400000005960464,                      !- Value Until Time 8
  22,                                     !- Hour 9
  0,                                      !- Minute 9
  0.100000001490116,                      !- Value Until Time 9
  24,                                     !- Hour 10
  0,                                      !- Minute 10
  0.0500000007450581;                     !- Value Until Time 10

OS:Schedule:Day,
  {14471cc6-1f72-4c27-a10c-15dc1ac497d7}, !- Handle
  Office Bldg Occ Rule 2 Day Schedule,    !- Name
  {6ef5c895-b1a4-4bbb-b56a-5385eb8cf60a}, !- Schedule Type Limits Name
  ,                                       !- Interpolate to Timestep
  6,                                      !- Hour 1
  0,                                      !- Minute 1
  0,                                      !- Value Until Time 1
  8,                                      !- Hour 2
  0,                                      !- Minute 2
  0.100000001490116,                      !- Value Until Time 2
  14,                                     !- Hour 3
  0,                                      !- Minute 3
  0.400000005960464,                      !- Value Until Time 3
  17,                                     !- Hour 4
  0,                                      !- Minute 4
  0.100000001490116,                      !- Value Until Time 4
  24,                                     !- Hour 5
  0,                                      !- Minute 5
  0;                                      !- Value Until Time 5

OS:Schedule:Day,
  {0c307597-13e7-4fa8-94b5-43c82cba3c97}, !- Handle
  Office Bldg Occ Summer Design Day,      !- Name
  {6ef5c895-b1a4-4bbb-b56a-5385eb8cf60a}, !- Schedule Type Limits Name
  ,                                       !- Interpolate to Timestep
  6,                                      !- Hour 1
  0,                                      !- Minute 1
  0,                                      !- Value Until Time 1
  22,                                     !- Hour 2
  0,                                      !- Minute 2
  1,                                      !- Value Until Time 2
  24,                                     !- Hour 3
  0,                                      !- Minute 3
  0.05;                                   !- Value Until Time 3

OS:Schedule:Day,
  {b1ebb6f5-bfd6-4f03-9867-af226f1c54fe}, !- Handle
  Office Bldg Occ Winter Design Day,      !- Name
  {6ef5c895-b1a4-4bbb-b56a-5385eb8cf60a}, !- Schedule Type Limits Name
  ,                                       !- Interpolate to Timestep
  24,                                     !- Hour 1
  0,                                      !- Minute 1
  0;                                      !- Value Until Time 1

OS:Schedule:Day,
  {70acfbca-d49f-4795-b4cd-868eccc418b9}, !- Handle
  Medium Office Bldg Equip Winter Design Day, !- Name
  {6ef5c895-b1a4-4bbb-b56a-5385eb8cf60a}, !- Schedule Type Limits Name
  ,                                       !- Interpolate to Timestep
  24,                                     !- Hour 1
  0,                                      !- Minute 1
  0;                                      !- Value Until Time 1

OS:Schedule:Day,
  {e8690882-2389-4f99-b3d8-cb8dd26b9f2f}, !- Handle
  Office Bldg Light Summer Design Day,    !- Name
  {6ef5c895-b1a4-4bbb-b56a-5385eb8cf60a}, !- Schedule Type Limits Name
  ,                                       !- Interpolate to Timestep
  24,                                     !- Hour 1
  0,                                      !- Minute 1
  1;                                      !- Value Until Time 1

OS:Material,
  {517d6838-01f6-4823-88f3-d6515b05b132}, !- Handle
  Wall Insulation [36],                   !- Name
  MediumRough,                            !- Roughness
  0.0565999999999999,                     !- Thickness {m}
  0.0432,                                 !- Conductivity {W/m-K}
  91,                                     !- Density {kg/m3}
  836.999999999999,                       !- Specific Heat {J/kg-K}
  0.9,                                    !- Thermal Absorptance
  0.5,                                    !- Solar Absorptance
  0.5;                                    !- Visible Absorptance

OS:ScheduleTypeLimits,
  {c0beca13-9d6b-4cee-a4ce-b8d63abb70d5}, !- Handle
  Temperature 36,                         !- Name
  ,                                       !- Lower Limit Value
  ,                                       !- Upper Limit Value
  Continuous,                             !- Numeric Type
  temperature;                            !- Unit Type

OS:Surface,
  {03c226bc-bb5a-4174-9762-5986a2133eaf}, !- Handle
  Surface 1,                              !- Name
  Floor,                                  !- Surface Type
  {c51cf298-498a-427a-a116-33d3d50c007e}, !- Construction Name
  {3360e487-23a8-4853-9561-bc0018bf1d83}, !- Space Name
  Ground,                                 !- Outside Boundary Condition