
OS:Version,
  {a91b466f-df65-437a-ae8c-9e4e6458cd88}, !- Handle
  3.2.1;                                  !- Version Identifier

OS:Facility,
  {f4d320d4-3900-4901-9a6c-bdbff220fd21}; !- Handle

OS:Building,
  {802465be-51a1-4120-b9f5-d5baa8d515d0}, !- Handle
  Building 1,                             !- Name
  ,                                       !- Building Sector Type
  -0,                                     !- North Axis {deg}
  ,                                       !- Nominal Floor to Floor Height {m}
  {0ae91901-31d2-48c6-be70-2a482915d720}, !- Space Type Name
  ,                                       !- Default Construction Set Name
  ,                                       !- Default Schedule Set Name
  ,                                       !- Standards Number of Stories
  ,                                       !- Standards Number of Above Ground Stories
  ,                                       !- Standards Template
  ,                                       !- Standards Building Type
  ,                                       !- Standards Number of Living Units
  ,                                       !- Relocatable
  ;                                       !- Nominal Floor to Ceiling Height {m}

OS:BuildingStory,
  {aa3ec3a4-7788-4f8c-abfd-aac393643fc6}, !- Handle
  Building Story 1,                       !- Name
  0,                                      !- Nominal Z Coordinate {m}
  2.35,                                   !- Nominal Floor to Floor Height {m}
  ,                                       !- Default Construction Set Name
  ,                                       !- Default Schedule Set Name
  {f0b3d43d-7a5f-42b0-a578-c40bea38f566}, !- Group Rendering Name
  ;                                       !- Nominal Floor to Ceiling Height {m}

OS:Rendering:Color,
  {f0b3d43d-7a5f-42b0-a578-c40bea38f566}, !- Handle
  Rendering Color 1,                      !- Name
  0,                                      !- Rendering Red Value
  0,                                      !- Rendering Green Value
  0,                                      !- Rendering Blue Value
  ;                                       !- Rendering Alpha Value

OS:BuildingStory,
  {3c483520-d4ad-4cfa-83ba-388ffc21df84}, !- Handle
  Building Story 2,                       !- Name
  0,                                      !- Nominal Z Coordinate {m}
  2.35,                                   !- Nominal Floor to Floor Height {m}
  ,                                       !- Default Construction Set Name
  ,                                       !- Default Schedule Set Name
  {f41ab1d2-8893-41b4-bea1-182e232d8bfc}, !- Group Rendering Name
  ;                                       !- Nominal Floor to Ceiling Height {m}

OS:Space,
  {fca50f89-82ad-4849-8142-e9caa0d07323}, !- Handle
  Space 109,                              !- Name
  {0df0cb66-2e06-404f-b0c4-23f25e2324fc}, !- Space Type Name
  {07cce518-59be-4cc2-99fd-46862dc4d0e0}, !- Default Construction Set Name
  {2124c71d-58d4-4e95-86f2-9e305547ac12}, !- Default Schedule Set Name
  -0,                                     !- Direction of Relative North {deg}
  21.6669364774002,                       !- X Origin {m}
  5.00877204730451,                       !- Y Origin {m}
  0,                                      !- Z Origin {m}
  {3c483520-d4ad-4cfa-83ba-388ffc21df84}, !- Building Story Name
  {7ee7bafb-6040-49fc-bcf3-4b7bec20b90b}, !- Thermal Zone Name
  ,                                       !- Part of Total Floor Area
  ,                                       !- Design Specification Outdoor Air Object Name
  ;                                       !- Building Unit Name

OS:Surface,
  {7cdf8954-cc05-4722-a2a5-77e1e068a8d5}, !- Handle
  Surface 65,                             !- Name
  Wall,                                   !- Surface Type
  {5927ede4-dc0f-41af-858a-2b2172c9c99b}, !- Construction Name
  {fca50f89-82ad-4849-8142-e9caa0d07323}, !- Space Name
  Ground,                                 !- Outside Boundary Condition
  ,                                       !- Outside Boundary Condition Object
  NoSun,                                  !- Sun Exposure
  NoWind,                                 !- Wind Exposure
  ,                                       !- View Factor to Ground
  ,                                       !- Number of Vertices
  0, 0, 0,                                !- X,Y,Z Vertex 1 {m}
  0, -0.620000000000001, 0,               !- X,Y,Z Vertex 2 {m}
  0.394999999999997, -0.620000000000001, 0, !- X,Y,Z Vertex 3 {m}
  0.394999999999997, -3.5, 0,             !- X,Y,Z Vertex 4 {m}
  -4.895, -3.5, 0,                        !- X,Y,Z Vertex 5 {m}
  -4.895, -3.41, 0,                       !- X,Y,Z Vertex 6 {m}
  -7.255, -3.41, 0,                       !- X,Y,Z Vertex 7 {m}
  -7.255, 0, 0,                           !- X,Y,Z Vertex 8 {m}
  -5.42, 0, 0,                            !- X,Y,Z Vertex 9 {m}
  -5.42, -0.125, 0,                       !- X,Y,Z Vertex 10 {m}
  -4.91, -0.125, 0,                       !- X,Y,Z Vertex 11 {m}
  -4.91, 0, 0;                            !- X,Y,Z Vertex 12 {m}

OS:Surface,
  {926adf07-d40e-4e42-819c-89cd137084aa}, !- Handle
  Surface 66,                             !- Name
  Wall,                                   !- Surface Type
  ,                                       !- Construction Name
  {fca50f89-82ad-4849-8142-e9caa0d07323}, !- Space Name
  Outdoors,                               !- Outside Boundary Condition
  ,                                       !- Outside Boundary Condition Object
  NoSun,                                  !- Sun Exposure
  NoWind,                                 !- Wind Exposure
  ,                                       !- View Factor to Ground
  ,                                       !- Number of Vertices
  0, -0.620000000000001, 2.35,            !- X,Y,Z Vertex 1 {m}
  0, -0.620000000000001, 0,               !- X,Y,Z Vertex 2 {m}
  0, 0, 0,                                !- X,Y,Z Vertex 3 {m}
  0, 0, 2.35;                             !- X,Y,Z Vertex 4 {m}

OS:Surface,
  {542b88d2-4ef7-4510-bcee-0211e66bbac7}, !- Handle
  Surface 67,                             !- Name
  Wall,                                   !- Surface Type
  ,                                       !- Construction Name
  {fca50f89-82ad-4849-8142-e9caa0d07323}, !- Space Name
  Outdoors,                               !- Outside Boundary Condition
  ,                                       !- Outside Boundary Condition Object
  NoSun,                                  !- Sun Exposure
  NoWind,                                 !- Wind Exposure
  ,                                       !- View Factor to Ground
  ,                                       !- Number of Vertices
  0.394999999999997, -0.620000000000001, 2.35, !- X,Y,Z Vertex 1 {m}
  0.394999999999997, -0.620000000000001, 0, !- X,Y,Z Vertex 2 {m}
  0, -0.620000000000001, 0,               !- X,Y,Z Vertex 3 {m}
  0, -0.620000000000001, 2.35;            !- X,Y,Z Vertex 4 {m}

OS:Surface,
  {92bfbbd2-a3cd-43e6-97d1-0a6c15a68e68}, !- Handle
  Surface 68,                             !- Name
  Wall,                                   !- Surface Type
  ,                                       !- Construction Name
  {fca50f89-82ad-4849-8142-e9caa0d07323}, !- Space Name
  Outdoors,                               !- Outside Boundary Condition
  ,                                       !- Outside Boundary Condition Object
  SunExposed,                             !- Sun Exposure
  WindExposed,                            !- Wind Exposure
  ,                                       !- View Factor to Ground
  ,                                       !- Number of Vertices
  0.394999999999997, -3.5, 2.35,          !- X,Y,Z Vertex 1 {m}
  0.394999999999997, -3.5, 0,             !- X,Y,Z Vertex 2 {m}
  0.394999999999997, -0.620000000000001, 0, !- X,Y,Z Vertex 3 {m}
  0.394999999999997, -0.620000000000001, 2.35; !- X,Y,Z Vertex 4 {m}

OS:Surface,
  {c6eaf683-5d5e-4e45-814a-18cba98fa72b}, !- Handle
  Surface 69,                             !- Name
  Wall,                                   !- Surface Type
  ,                                       !- Construction Name
  {fca50f89-82ad-4849-8142-e9caa0d07323}, !- Space Name
  Outdoors,                               !- Outside Boundary Condition
  ,                                       !- Outside Boundary Condition Object
  NoSun,                                  !- Sun Exposure
  NoWind,                                 !- Wind Exposure
  ,                                       !- View Factor to Ground
  ,                                       !- Number of Vertices
  -4.895, -3.5, 2.35,                     !- X,Y,Z Vertex 1 {m}
  -4.895, -3.5, 0,                        !- X,Y,Z Vertex 2 {m}
  0.394999999999997, -3.5, 0,             !- X,Y,Z Vertex 3 {m}
  0.394999999999997, -3.5, 2.35;          !- X,Y,Z Vertex 4 {m}

OS:Surface,
  {07ee4910-894f-48a8-a46e-d548fca9e156}, !- Handle
  Surface 70,                             !- Name
  Wall,                                   !- Surface Type
  ,                                       !- Construction Name
  {fca50f89-82ad-4849-8142-e9caa0d07323}, !- Space Name
  Outdoors,                               !- Outside Boundary Condition
  ,                                       !- Outside Boundary Condition Object
  NoSun,                                  !- Sun Exposure
  NoWind,                                 !- Wind Exposure
  ,                                       !- View Factor to Ground
  ,                                       !- Number of Vertices
  -4.895, -3.41, 2.35,                    !- X,Y,Z Vertex 1 {m}
  -4.895, -3.41, 0,                       !- X,Y,Z Vertex 2 {m}
  -4.895, -3.5, 0,                        !- X,Y,Z Vertex 3 {m}
  -4.895, -3.5, 2.35;                     !- X,Y,Z Vertex 4 {m}

OS:Surface,
  {c47eb77a-956d-4ce0-9b7d-f5bdf0bbe390}, !- Handle
  Surface 71,                             !- Name
  Wall,                                   !- Surface Type
  ,                                       !- Construction Name
  {fca50f89-82ad-4849-8142-e9caa0d07323}, !- Space Name
  Outdoors,                               !- Outside Boundary Condition
  ,                                       !- Outside Boundary Condition Object
  NoSun,                                  !- Sun Exposure
  NoWind,                                 !- Wind Exposure
  ,                                       !- View Factor to Ground
  ,                                       !- Number of Vertices
  -7.255, -3.41, 2.35,                    !- X,Y,Z Vertex 1 {m}
  -7.255, -3.41, 0,                       !- X,Y,Z Vertex 2 {m}
  -4.895, -3.41, 0,                       !- X,Y,Z Vertex 3 {m}
  -4.895, -3.41, 2.35;                    !- X,Y,Z Vertex 4 {m}

OS:Surface,
  {4c525abe-9e06-4843-a35e-7de7b20a6f93}, !- Handle
  Surface 72,                             !- Name
  Wall,                                   !- Surface Type
  ,                                       !- Construction Name
  {fca50f89-82ad-4849-8142-e9caa0d07323}, !- Space Name
  Outdoors,                               !- Outside Boundary Condition
  ,                                       !- Outside Boundary Condition Object
  NoSun,                                  !- Sun Exposure
  NoWind,                                 !- Wind Exposure
  ,                                       !- View Factor to Ground
  ,                                       !- Number of Vertices
  -7.255, 0, 2.35,                        !- X,Y,Z Vertex 1 {m}
  -7.255, 0, 0,                           !- X,Y,Z Vertex 2 {m}
  -7.255, -3.41, 0,                       !- X,Y,Z Vertex 3 {m}
  -7.255, -3.41, 2.35;                    !- X,Y,Z Vertex 4 {m}

OS:Surface,
  {455055cb-3646-4729-b49d-47534f0633fb}, !- Handle
  Surface 73,                             !- Name
  Wall,                                   !- Surface Type
  ,                                       !- Construction Name
  {fca50f89-82ad-4849-8142-e9caa0d07323}, !- Space Name
  Outdoors,                               !- Outside Boundary Condition
  ,                                       !- Outside Boundary Condition Object
  NoSun,                                  !- Sun Exposure
  NoWind,                                 !- Wind Exposure
  ,                                       !- View Factor to Ground
  ,                                       !- Number of Vertices
  -5.42, 0, 2.35,                         !- X,Y,Z Vertex 1 {m}
  -5.42, 0, 0,                            !- X,Y,Z Vertex 2 {m}
  -7.255, 0, 0,                           !- X,Y,Z Vertex 3 {m}
  -7.255, 0, 2.35;                        !- X,Y,Z Vertex 4 {m}

OS:Surface,
  {0493f791-d944-41be-b15e-2a563b0e0d05}, !- Handle
  Surface 74,                             !- Name
  Wall,                                   !- Surface Type
  ,                                       !- Construction Name
  {fca50f89-82ad-4849-8142-e9caa0d07323}, !- Space Name
  Outdoors,                               !- Outside Boundary Condition
  ,                                       !- Outside Boundary Condition Object
  NoSun,                                  !- Sun Exposure
  NoWind,                                 !- Wind Exposure
  ,                                       !- View Factor to Ground
  ,                                       !- Number of Vertices
  -5.42, -0.125, 2.35,                    !- X,Y,Z Vertex 1 {m}
  -5.42, -0.125, 0,                       !- X,Y,Z Vertex 2 {m}
  -5.42, 0, 0,                            !- X,Y,Z Vertex 3 {m}
  -5.42, 0, 2.35;                         !- X,Y,Z Vertex 4 {m}

OS:Surface,
  {33e4596f-ee96-443e-a276-00247c3499e2}, !- Handle
  Surface 75,                             !- Name
  Wall,                                   !- Surface Type
  {5927ede4-dc0f-41af-858a-2b2172c9c99b}, !- Construction Name
  {fca50f89-82ad-4849-8142-e9caa0d07323}, !- Space Name
  Outdoors,                               !- Outside Boundary Condition
  ,                                       !- Outside Boundary Condition Object
  NoSun,                                  !- Sun Exposure
  NoWind,                                 !- Wind Exposure
  ,                                       !- View Factor to Ground
  ,                                       !- Number of Vertices
  -4.91, -0.125, 2.35,                    !- X,Y,Z Vertex 1 {m}
  -4.91, -0.125, 0,                       !- X,Y,Z Vertex 2 {m}
  -5.42, -0.125, 0,                       !- X,Y,Z Vertex 3 {m}
  -5.42, -0.125, 2.35;                    !- X,Y,Z Vertex 4 {m}

OS:Surface,
  {8bef9462-791e-47af-9de0-63217c279b37}, !- Handle
  Surface 76,                             !- Name
  Wall,                                   !- Surface Type
  ,                                       !- Construction Name
  {fca50f89-82ad-4849-8142-e9caa0d07323}, !- Space Name
  Outdoors,                               !- Outside Boundary Condition
  ,                                       !- Outside Boundary Condition Object
  NoSun,                                  !- Sun Exposure
  NoWind,                                 !- Wind Exposure
  ,                                       !- View Factor to Ground
  ,                                       !- Number of Vertices
  -4.91, 0, 2.35,                         !- X,Y,Z Vertex 1 {m}
  -4.91, 0, 0,                            !- X,Y,Z Vertex 2 {m}
  -4.91, -0.125, 0,                       !- X,Y,Z Vertex 3 {m}
  -4.91, -0.125, 2.35;                    !- X,Y,Z Vertex 4 {m}

OS:Surface,
  {d4618c29-9e21-4f5a-b815-df962714c053}, !- Handle
  Surface 77,                             !- Name
  Wall,                                   !- Surface Type
  ,                                       !- Construction Name
  {fca50f89-82ad-4849-8142-e9caa0d07323}, !- Space Name
  Outdoors,                               !- Outside Boundary Condition
  ,                                       !- Outside Boundary Condition Object
  NoSun,                                  !- Sun Exposure
  NoWind,                                 !- Wind Exposure
  ,                                       !- View Factor to Ground
  ,                                       !- Number of Vertices
  0, 0, 2.35,                             !- X,Y,Z Vertex 1 {m}
  0, 0, 0,                                !- X,Y,Z Vertex 2 {m}
  -4.91, 0, 0,                            !- X,Y,Z Vertex 3 {m}
  -4.91, 0, 2.35;                         !- X,Y,Z Vertex 4 {m}

OS:Surface,
  {6acf2c66-ba2f-40cf-89ca-fa50ed9c4721}, !- Handle
  Surface 78,                             !- Name
  Wall,                                   !- Surface Type
  ,                                       !- Construction Name
  {fca50f89-82ad-4849-8142-e9caa0d07323}, !- Space Name
  Outdoors,                               !- Outside Boundary Condition
  ,                                       !- Outside Boundary Condition Object
  NoSun,                                  !- Sun Exposure
  NoWind,                                 !- Wind Exposure
  ,                                       !- View Factor to Ground
  ,                                       !- Number of Vertices
  0.394999999999997, -3.5, 2.35,          !- X,Y,Z Vertex 1 {m}
  0.394999999999997, -0.620000000000001, 2.35, !- X,Y,Z Vertex 2 {m}
  0, -0.620000000000001, 2.35,            !- X,Y,Z Vertex 3 {m}
  0, 0, 2.35,                             !- X,Y,Z Vertex 4 {m}
  -4.91, 0, 2.35,                         !- X,Y,Z Vertex 5 {m}
  -4.91, -0.125, 2.35,                    !- X,Y,Z Vertex 6 {m}
  -5.42, -0.125, 2.35,                    !- X,Y,Z Vertex 7 {m}
  -5.42, 0, 2.35,                         !- X,Y,Z Vertex 8 {m}
  -7.255, 0, 2.35,                        !- X,Y,Z Vertex 9 {m}
  -7.255, -3.41, 2.35,                    !- X,Y,Z Vertex 10 {m}
  -4.895, -3.41, 2.35,                    !- X,Y,Z Vertex 11 {m}
  -4.895, -3.5, 2.35;                     !- X,Y,Z Vertex 12 {m}

OS:Rendering:Color,
  {f41ab1d2-8893-41b4-bea1-182e232d8bfc}, !- Handle
  Rendering Color 2,                      !- Name
  176,                                    !- Rendering Red Value
  230,                                    !- Rendering Green Value
  224;                                    !- Rendering Blue Value

OS:ThermalZone,
  {7ee7bafb-6040-49fc-bcf3-4b7bec20b90b}, !- Handle
  Thermal Zone 1,                         !- Name
  ,                                       !- Multiplier
  ,                                       !- Ceiling Height {m}
  ,                                       !- Volume {m3}
  ,                                       !- Floor Area {m2}
  ,                                       !- Zone Inside Convection Algorithm
  ,                                       !- Zone Outside Convection Algorithm
  ,                                       !- Zone Conditioning Equipment List Name
  {368634b4-352c-4137-a2d9-18d2ba913051}, !- Zone Air Inlet Port List
  {4d51e5ee-0e1b-4a62-949b-dfb554eb7f61}, !- Zone Air Exhaust Port List
  {b95c4fa8-1c83-4cc4-a3a2-6c8ace369e24}, !- Zone Air Node Name
  {d895354a-6e24-4390-80a0-27f5c425224d}, !- Zone Return Air Port List
  {50b69334-8e62-4970-9556-7bffdce4634f}, !- Primary Daylighting Control Name
  ,                                       !- Fraction of Zone Controlled by Primary Daylighting Control
  ,                                       !- Secondary Daylighting Control Name
  ,                                       !- Fraction of Zone Controlled by Secondary Daylighting Control
  ,                                       !- Illuminance Map Name
  {99fb9cf8-caf9-487b-b65e-846fab3850b9}, !- Group Rendering Name
  {31f91263-fccc-4693-8f1e-05b9f0a75138}, !- Thermostat Name
  No,                                     !- Use Ideal Air Loads
  {4e5adbe3-b850-4dd6-82fa-0886d557fb6f}; !- Humidistat Name

OS:Node,
  {1694845f-a26d-4bb0-b385-08c41e970665}, !- Handle
  Node 1,                                 !- Name
  {b95c4fa8-1c83-4cc4-a3a2-6c8ace369e24}, !- Inlet Port
  ;                                       !- Outlet Port

OS:Connection,
  {b95c4fa8-1c83-4cc4-a3a2-6c8ace369e24}, !- Handle
  {7ee7bafb-6040-49fc-bcf3-4b7bec20b90b}, !- Source Object
  11,                                     !- Outlet Port
  {1694845f-a26d-4bb0-b385-08c41e970665}, !- Target Object
  2;                                      !- Inlet Port

OS:PortList,
  {368634b4-352c-4137-a2d9-18d2ba913051}, !- Handle
  {7ee7bafb-6040-49fc-bcf3-4b7bec20b90b}; !- HVAC Component

OS:PortList,
  {4d51e5ee-0e1b-4a62-949b-dfb554eb7f61}, !- Handle
  {7ee7bafb-6040-49fc-bcf3-4b7bec20b90b}; !- HVAC Component

OS:PortList,
  {d895354a-6e24-4390-80a0-27f5c425224d}, !- Handle
  {7ee7bafb-6040-49fc-bcf3-4b7bec20b90b}; !- HVAC Component

OS:Sizing:Zone,
  {f1f5e7e3-f4c3-4a73-957a-e49fe764ca79}, !- Handle
  {7ee7bafb-6040-49fc-bcf3-4b7bec20b90b}, !- Zone or ZoneList Name
  SupplyAirTemperature,                   !- Zone Cooling Design Supply Air Temperature Input Method
  14,                                     !- Zone Cooling Design Supply Air Temperature {C}
  11.11,                                  !- Zone Cooling Design Supply Air Temperature Difference {deltaC}
  SupplyAirTemperature,                   !- Zone Heating Design Supply Air Temperature Input Method
  40,                                     !- Zone Heating Design Supply Air Temperature {C}
  11.11,                                  !- Zone Heating Design Supply Air Temperature Difference {deltaC}
  0.0085,                                 !- Zone Cooling Design Supply Air Humidity Ratio {kg-H2O/kg-air}
  0.008,                                  !- Zone Heating Design Supply Air Humidity Ratio {kg-H2O/kg-air}
  ,                                       !- Zone Heating Sizing Factor
  ,                                       !- Zone Cooling Sizing Factor
  DesignDay,                              !- Cooling Design Air Flow Method
  ,                                       !- Cooling Design Air Flow Rate {m3/s}
  ,                                       !- Cooling Minimum Air Flow per Zone Floor Area {m3/s-m2}
  ,                                       !- Cooling Minimum Air Flow {m3/s}
  ,                                       !- Cooling Minimum Air Flow Fraction
  DesignDay,                              !- Heating Design Air Flow Method
  ,                                       !- Heating Design Air Flow Rate {m3/s}
  ,                                       !- Heating Maximum Air Flow per Zone Floor Area {m3/s-m2}
  ,                                       !- Heating Maximum Air Flow {m3/s}
  ,                                       !- Heating Maximum Air Flow Fraction
  No,                                     !- Account for Dedicated Outdoor Air System
  NeutralSupplyAir,                       !- Dedicated Outdoor Air System Control Strategy
  autosize,                               !- Dedicated Outdoor Air Low Setpoint Temperature for Design {C}
  autosize;                               !- Dedicated Outdoor Air High Setpoint Temperature for Design {C}

OS:ZoneHVAC:EquipmentList,
  {d689e462-f4db-438e-b8cc-1feed361d140}, !- Handle
  Zone HVAC Equipment List 1,             !- Name
  {7ee7bafb-6040-49fc-bcf3-4b7bec20b90b}; !- Thermal Zone

OS:Rendering:Color,
  {99fb9cf8-caf9-487b-b65e-846fab3850b9}, !- Handle
  Rendering Color 3,                      !- Name
  124,                                    !- Rendering Red Value
  0,                                      !- Rendering Green Value
  252;                                    !- Rendering Blue Value

OS:SpaceType,
  {24397f7b-3800-42ac-aff2-549b7aa796d5}, !- Handle
  189.1-2009 - Office - BreakRoom - CZ1-3, !- Name
  ,                                       !- Default Construction Set Name
  {2124c71d-58d4-4e95-86f2-9e305547ac12}, !- Default Schedule Set Name
  {23e575b6-0054-472f-9019-aace2f56fdcb}, !- Group Rendering Name
  {f31d5a9a-bb1a-4533-965e-bbf5759a20c9}, !- Design Specification Outdoor Air Object Name
  ,                                       !- Standards Template
  Office,                                 !- Standards Building Type
  BreakRoom;                              !- Standards Space Type

OS:Rendering:Color,
  {23e575b6-0054-472f-9019-aace2f56fdcb}, !- Handle
  Rendering Color 4,                      !- Name
  230,                                    !- Rendering Red Value
  157,                                    !- Rendering Green Value
  120;                                    !- Rendering Blue Value

OS:DefaultScheduleSet,
  {2124c71d-58d4-4e95-86f2-9e305547ac12}, !- Handle
  189.1-2009 - Office - BreakRoom - CZ1-3 Schedule Set, !- Name
  ,                                       !- Hours of Operation Schedule Name
  {b1b4f578-21f8-482c-97f6-2543f703bd54}, !- Number of People Schedule Name
  {2aa7a86e-4d35-4538-9b6e-a59109cd7231}, !- People Activity Level Schedule Name
  {8b4fcd5b-8523-4bd2-b866-f3b0c809da89}, !- Lighting Schedule Name
  {0f1b7e3c-f1a8-484c-858f-5d6d50021c7f}, !- Electric Equipment Schedule Name
  ,                                       !- Gas Equipment Schedule Name
  ,                                       !- Hot Water Equipment Schedule Name
  {65480728-60fe-4c1b-84c3-2ecc8ade2c61}, !- Infiltration Schedule Name
  ,                                       !- Steam Equipment Schedule Name
  ;                                       !- Other Equipment Schedule Name

OS:Lights:Definition,
  {d8a97692-0d51-4543-9cf9-9b2a398e73e4}, !- Handle
  189.1-2009 - Office - BreakRoom - CZ1-3 Lights Definition, !- Name
  Watts/Area,                             !- Design Level Calculation Method
  ,                                       !- Lighting Level {W}
  11.6250232500465,                       !- Watts per Space Floor Area {W/m2}
  ;                                       !- Watts per Person {W/person}

OS:Lights,
  {1eb2c85a-2996-439c-ba11-c22748d4ed52}, !- Handle
  189.1-2009 - Office - BreakRoom - CZ1-3 Lights, !- Name
  {d8a97692-0d51-4543-9cf9-9b2a398e73e4}, !- Lights Definition Name
  {24397f7b-3800-42ac-aff2-549b7aa796d5}, !- Space or SpaceType Name
  ,                                       !- Schedule Name
  1,                                      !- Fraction Replaceable
  ,                                       !- Multiplier
  General;                                !- End-Use Subcategory

OS:Schedule:Ruleset,
  {8b4fcd5b-8523-4bd2-b866-f3b0c809da89}, ! Handle
  Office Bldg Light,                      ! Name
  {120e101a-f2de-46d2-b83f-2584b92e34da}, ! Schedule Type Limits Name
  {1cde91bf-13b6-4298-9190-e861445cee9a}, ! Default Day Schedule Name
  {16d6ea6d-be9b-47d9-bd80-6fc6cc725ea5}, ! Summer Design Day Schedule Name
  {df4c1c13-c24f-4164-93d0-f04c9a74386b}; ! Winter Design Day Schedule Name

OS:ScheduleTypeLimits,
  {120e101a-f2de-46d2-b83f-2584b92e34da}, ! Handle
  Fraction,                               ! Name
  0,                                      ! Lower Limit Value
  1,                                      ! Upper Limit Value
  CONTINUOUS;                             ! Numeric Type

OS:Schedule:Day,
  {1cde91bf-13b6-4298-9190-e861445cee9a}, ! Handle
  Office Bldg Light Default Schedule,     ! Name
  {120e101a-f2de-46d2-b83f-2584b92e34da}, ! Schedule Type Limits Name
  ,                                       ! Interpolate to Timestep
  5,                                      !- Hour 1
  0,                                      !- Minute 1
  0.05,                                   !- Value Until Time 1
  7,                                      !- Hour 2
  0,                                      !- Minute 2
  0.1,                                    !- Value Until Time 2
  8,                                      !- Hour 3
  0,                                      !- Minute 3
  0.3,                                    !- Value Until Time 3
  17,                                     !- Hour 4
  0,                                      !- Minute 4
  0.9,                                    !- Value Until Time 4
  18,                                     !- Hour 5
  0,                                      !- Minute 5
  0.7,                                    !- Value Until Time 5
  20,                                     !- Hour 6
  0,                                      !- Minute 6
  0.5,                                    !- Value Until Time 6
  22,                                     !- Hour 7
  0,                                      !- Minute 7
  0.3,                                    !- Value Until Time 7
  23,                                     !- Hour 8
  0,                                      !- Minute 8
  0.1,                                    !- Value Until Time 8
  24,                                     !- Hour 9
  0,                                      !- Minute 9
  0.05;                                   !- Value Until Time 9

OS:Schedule:Day,
  {16d6ea6d-be9b-47d9-bd80-6fc6cc725ea5}, ! Handle
  Office Bldg Light Summer Design Day,    ! Name
  {120e101a-f2de-46d2-b83f-2584b92e34da}, ! Schedule Type Limits Name
  ,                                       ! Interpolate to Timestep
  24,                                     ! Hour 1
  0,                                      ! Minute 1
  1;                                      ! Value Until Time 1

OS:Schedule:Day,
  {df4c1c13-c24f-4164-93d0-f04c9a74386b}, ! Handle
  Office Bldg Light Winter Design Day,    ! Name
  {120e101a-f2de-46d2-b83f-2584b92e34da}, ! Schedule Type Limits Name
  ,                                       ! Interpolate to Timestep
  24,                                     ! Hour 1
  0,                                      ! Minute 1
  0;                                      ! Value Until Time 1

OS:Schedule:Rule,
  {a83ce0c3-20a8-4825-8a1a-68fd08bef415}, !- Handle
  Office Bldg Light Rule 1,               !- Name
  {8b4fcd5b-8523-4bd2-b866-f3b0c809da89}, !- Schedule Ruleset Name
  0,                                      !- Rule Order